
##########                                Name:     oleObject80.pdb
##########                DOCK_Rotatable_Bonds:                  14
##########                         Heavy_Atoms:                  51
##########                    Molecular_Weight:             703.283
##########                DOCK_Rotatable_Bonds:                  14
##########                       Formal_Charge:         0.000299793
##########                     HBond_Acceptors:                  10
##########                        HBond_Donors:                   3
##########                         Heavy_Atoms:                  51
##########                          Grid_Score:          -38.109756
##########                     Grid_vdw_energy:          -38.331726
##########                      Grid_es_energy:            0.221970
##########           Internal_energy_repulsive:          128.133560

@<TRIPOS>MOLECULE
oleObject80.pdb
 94 99 1 0 0
SMALL
NO_CHARGES


@<TRIPOS>ATOM
      1 C         -14.4564    2.6940   64.7029 C.ar    1  UNL        -0.0620
      2 C         -13.3905    2.2856   65.5170 C.ar    1  UNL        -0.0590
      3 C         -12.0605    2.3806   65.0635 C.ar    1  UNL        -0.0456
      4 C         -11.7941    2.8938   63.7685 C.ar    1  UNL        -0.0185
      5 C         -12.8792    3.3028   62.9615 C.ar    1  UNL        -0.0565
      6 C         -14.1996    3.2043   63.4242 C.ar    1  UNL        -0.0619
      7 C         -10.3514    3.0013   63.2428 C.3     1  UNL         0.0931
      8 C          -9.3482    3.5294   64.2839 C.ar    1  UNL         0.0683
      9 C          -9.2763    4.9067   64.6132 C.ar    1  UNL        -0.0272
     10 C          -8.3300    5.3190   65.5702 C.ar    1  UNL        -0.0559
     11 C          -7.4981    4.3607   66.1666 C.ar    1  UNL        -0.0435
     12 C          -7.6423    3.0179   65.7889 C.ar    1  UNL         0.0272
     13 N          -8.5441    2.6138   64.8749 N.ar    1  UNL        -0.2587
     14 C         -10.1866    5.9467   63.9693 C.3     1  UNL        -0.0379
     15 N          -9.8747    1.7853   62.5227 N.am    1  UNL        -0.2918
     16 C         -10.0598    1.6596   61.1412 C.2     1  UNL         0.2180
     17 O         -10.3645    2.6274   60.4633 O.2     1  UNL        -0.2772
     18 C          -9.5343    0.3643   60.4729 C.3     1  UNL         0.0385
     19 C          -8.0686    0.5115   59.9951 C.3     1  UNL        -0.0289
     20 C          -7.9589    1.4061   58.7434 C.3     1  UNL        -0.0010
     21 N          -8.7870    0.8916   57.6317 N.4     1  UNL        -0.3010
     22 C         -10.2154    0.7327   57.9963 C.3     1  UNL        -0.0010
     23 C         -10.4143   -0.1061   59.2843 C.3     1  UNL        -0.0289
     24 C          -8.5611    1.6610   56.3880 C.3     1  UNL         0.0222
     25 C          -9.4032    1.1631   55.1953 C.3     1  UNL         0.0661
     26 O          -9.0893    1.9907   54.0610 O.3     1  UNL        -0.3432
     27 C          -7.9061    1.8996   53.3533 C.ar    1  UNL         0.0937
     28 C          -7.3250    0.6588   53.0218 C.ar    1  UNL        -0.0284
     29 C          -6.1196    0.6123   52.3022 C.ar    1  UNL        -0.0381
     30 C          -5.4830    1.7956   51.8900 C.ar    1  UNL         0.0319
     31 C          -6.0534    3.0344   52.2411 C.ar    1  UNL        -0.0194
     32 C          -7.2578    3.0869   52.9618 C.ar    1  UNL         0.0727
     33 CL         -7.9298    4.6544   53.3712 Cl      1  UNL        -0.0814
     34 N          -4.2795    1.7026   51.1932 N.pl3   1  UNL        -0.3136
     35 C          -3.0096    2.2107   51.4649 C.ar    1  UNL         0.0489
     36 C          -2.8398    3.1282   52.5167 C.ar    1  UNL         0.0488
     37 N          -1.6445    3.6510   52.8558 N.ar    1  UNL        -0.2543
     38 C          -0.5314    3.2859   52.1823 C.ar    1  UNL         0.0703
     39 C          -0.6156    2.3502   51.1186 C.ar    1  UNL        -0.0339
     40 C          -1.8600    1.8063   50.7619 C.ar    1  UNL        -0.0371
     41 C           0.7670    3.9078   52.6226 C.ar    1  UNL         0.0009
     42 C           1.9972    3.5883   51.9907 C.ar    1  UNL        -0.0402
     43 C           3.2203    4.1636   52.3941 C.ar    1  UNL         0.0375
     44 C           3.2170    5.0854   53.4616 C.ar    1  UNL        -0.0496
     45 C           2.0175    5.4157   54.1075 C.ar    1  UNL        -0.0608
     46 C           0.8098    4.8343   53.6959 C.ar    1  UNL        -0.0528
     47 C           4.4926    3.7776   51.6789 C.2     1  UNL         0.2403
     48 O           4.5079    2.9834   50.7556 O.2     1  UNL        -0.2722
     49 N           5.6658    4.3621   52.1070 N.am    1  UNL        -0.3251
     50 C          -9.1349    0.7763   63.3139 C.3     1  UNL         0.0037
     51 C         -10.9409    1.9249   65.9950 C.3     1  UNL        -0.0394
     52 H         -15.4782    2.6168   65.0636 H       1  UNL         0.0623
     53 H         -13.6018    1.8932   66.5078 H       1  UNL         0.0626
     54 H         -12.7083    3.7092   61.9697 H       1  UNL         0.0627
     55 H         -15.0223    3.5249   62.7914 H       1  UNL         0.0623
     56 H         -10.3965    3.7905   62.4882 H       1  UNL         0.0626
     57 H          -8.2401    6.3653   65.8481 H       1  UNL         0.0627
     58 H          -6.7593    4.6514   66.9075 H       1  UNL         0.0639
     59 H          -7.0179    2.2422   66.2301 H       1  UNL         0.0840
     60 H          -9.9569    6.0635   62.9028 H       1  UNL         0.0280
     61 H         -10.0719    6.9312   64.4397 H       1  UNL         0.0280
     62 H         -11.2423    5.6631   64.0617 H       1  UNL         0.0280
     63 H          -9.5745   -0.4344   61.2226 H       1  UNL         0.0402
     64 H          -7.6683   -0.4818   59.7540 H       1  UNL         0.0288
     65 H          -7.4358    0.9152   60.7927 H       1  UNL         0.0288
     66 H          -6.9058    1.4475   58.4366 H       1  UNL         0.0431
     67 H          -8.2704    2.4276   59.0011 H       1  UNL         0.0431
     68 H         -10.7627    0.2353   57.1870 H       1  UNL         0.0431
     69 H         -10.6679    1.7227   58.1326 H       1  UNL         0.0431
     70 H         -10.1604   -1.1491   59.0549 H       1  UNL         0.0288
     71 H         -11.4730   -0.1007   59.5732 H       1  UNL         0.0288
     72 H          -7.5034    1.5840   56.1041 H       1  UNL         0.0455
     73 H          -8.7793    2.7229   56.5612 H       1  UNL         0.0455
     74 H         -10.4721    1.2379   55.4293 H       1  UNL         0.0586
     75 H          -9.1521    0.1161   54.9829 H       1  UNL         0.0586
     76 H          -7.7944   -0.2740   53.3165 H       1  UNL         0.0652
     77 H          -5.6828   -0.3513   52.0548 H       1  UNL         0.0644
     78 H          -5.5571    3.9628   51.9764 H       1  UNL         0.0659
     79 H          -4.3395    1.1780   50.3298 H       1  UNL         0.1528
     80 H          -3.6930    3.4646   53.1043 H       1  UNL         0.0861
     81 H           0.2663    2.0495   50.5638 H       1  UNL         0.0646
     82 H          -1.9179    1.0712   49.9654 H       1  UNL         0.0644
     83 H           2.0097    2.8662   51.1817 H       1  UNL         0.0638
     84 H           4.1363    5.5512   53.8023 H       1  UNL         0.0631
     85 H           2.0227    6.1259   54.9297 H       1  UNL         0.0623
     86 H          -0.1030    5.1163   54.2128 H       1  UNL         0.0630
     87 H           6.5407    4.1316   51.6556 H       1  UNL         0.1458
     88 H           5.6342    5.0216   52.8741 H       1  UNL         0.1458
     89 H          -9.1610    0.9994   64.3856 H       1  UNL         0.0433
     90 H          -8.0836    0.7501   63.0045 H       1  UNL         0.0433
     91 H          -9.5814   -0.2131   63.1545 H       1  UNL         0.0433
     92 H         -11.3297    1.5976   66.9673 H       1  UNL         0.0280
     93 H         -10.2298    2.7370   66.1888 H       1  UNL         0.0280
     94 H         -10.3866    1.0808   65.5666 H       1  UNL         0.0280
@<TRIPOS>BOND
     1     1     2   ar
     2     1     6   ar
     3     1    52    1
     4     2     3   ar
     5     2    53    1
     6     3     4   ar
     7     3    51    1
     8     4     5   ar
     9     4     7    1
    10     5     6   ar
    11     5    54    1
    12     6    55    1
    13     7     8    1
    14     7    15    1
    15     7    56    1
    16     8     9   ar
    17     8    13   ar
    18     9    10   ar
    19     9    14    1
    20    10    11   ar
    21    10    57    1
    22    11    12   ar
    23    11    58    1
    24    12    13   ar
    25    12    59    1
    26    14    60    1
    27    14    61    1
    28    14    62    1
    29    15    16   am
    30    15    50    1
    31    16    17    2
    32    16    18    1
    33    18    19    1
    34    18    23    1
    35    18    63    1
    36    19    20    1
    37    19    64    1
    38    19    65    1
    39    20    21    1
    40    20    66    1
    41    20    67    1
    42    21    22    1
    43    21    24    1
    44    22    23    1
    45    22    68    1
    46    22    69    1
    47    23    70    1
    48    23    71    1
    49    24    25    1
    50    24    72    1
    51    24    73    1
    52    25    26    1
    53    25    74    1
    54    25    75    1
    55    26    27    1
    56    27    28   ar
    57    27    32   ar
    58    28    29   ar
    59    28    76    1
    60    29    30   ar
    61    29    77    1
    62    30    31   ar
    63    30    34    1
    64    31    32   ar
    65    31    78    1
    66    32    33    1
    67    34    35    1
    68    34    79    1
    69    35    36   ar
    70    35    40   ar
    71    36    37   ar
    72    36    80    1
    73    37    38   ar
    74    38    39   ar
    75    38    41    1
    76    39    40   ar
    77    39    81    1
    78    40    82    1
    79    41    42   ar
    80    41    46   ar
    81    42    43   ar
    82    42    83    1
    83    43    44   ar
    84    43    47    1
    85    44    45   ar
    86    44    84    1
    87    45    46   ar
    88    45    85    1
    89    46    86    1
    90    47    48    2
    91    47    49   am
    92    49    87    1
    93    49    88    1
    94    50    89    1
    95    50    90    1
    96    50    91    1
    97    51    92    1
    98    51    93    1
    99    51    94    1
@<TRIPOS>SUBSTRUCTURE
     1 UNL         1 TEMP              0 ****  ****    0 ROOT


##########                                Name:     oleObject14.pdb
##########                DOCK_Rotatable_Bonds:                   9
##########                         Heavy_Atoms:                  33
##########                    Molecular_Weight:             484.424
##########                DOCK_Rotatable_Bonds:                   9
##########                       Formal_Charge:         0.000299782
##########                     HBond_Acceptors:                   7
##########                        HBond_Donors:                   1
##########                         Heavy_Atoms:                  33
##########                          Grid_Score:          -38.022961
##########                     Grid_vdw_energy:          -37.728535
##########                      Grid_es_energy:           -0.294425
##########           Internal_energy_repulsive:           10.119484

@<TRIPOS>MOLECULE
oleObject14.pdb
 60 63 1 0 0
SMALL
NO_CHARGES


@<TRIPOS>ATOM
      1 C          -5.4013    1.8802   52.4193 C.ar    1  UNL         0.0422
      2 C          -5.6730    0.5221   52.1902 C.ar    1  UNL        -0.0408
      3 C          -6.8841   -0.0375   52.6308 C.ar    1  UNL        -0.0288
      4 C          -7.8320    0.7619   53.3051 C.ar    1  UNL         0.0937
      5 C          -7.5508    2.1249   53.5306 C.ar    1  UNL         0.0723
      6 C          -6.3390    2.6817   53.0889 C.ar    1  UNL        -0.0221
      7 CL         -8.7006    3.1542   54.3640 Cl      1  UNL        -0.0814
      8 O          -9.0344    0.2505   53.7542 O.3     1  UNL        -0.3432
      9 C          -9.3505   -1.1529   53.7585 C.3     1  UNL         0.0661
     10 C         -10.8719   -1.2920   53.9736 C.3     1  UNL         0.0222
     11 N         -11.2738   -1.2328   55.3966 N.4     1  UNL        -0.3010
     12 C         -10.7605   -2.3518   56.2212 C.3     1  UNL        -0.0010
     13 C         -11.3035   -2.2986   57.6666 C.3     1  UNL        -0.0289
     14 C         -11.0436   -0.9377   58.3567 C.3     1  UNL         0.0382
     15 C         -11.5020    0.2213   57.4359 C.3     1  UNL        -0.0289
     16 C         -10.9841    0.0932   55.9840 C.3     1  UNL        -0.0010
     17 C          -9.5655   -0.7913   58.7954 C.2     1  UNL         0.2156
     18 O          -8.6545   -1.2989   58.1671 O.2     1  UNL        -0.2774
     19 N          -9.2480   -0.0245   59.9092 N.am    1  UNL        -0.3025
     20 C          -7.9102    0.2301   60.4757 C.3     1  UNL         0.0900
     21 C          -7.1998    1.4114   59.8174 C.ar    1  UNL        -0.0217
     22 C          -6.3113    1.2194   58.7401 C.ar    1  UNL        -0.0568
     23 C          -5.6579    2.3156   58.1537 C.ar    1  UNL        -0.0619
     24 C          -5.8898    3.6130   58.6369 C.ar    1  UNL        -0.0622
     25 C          -6.7779    3.8131   59.7052 C.ar    1  UNL        -0.0619
     26 C          -7.4311    2.7168   60.2914 C.ar    1  UNL        -0.0568
     27 C          -7.9636    0.4084   61.9900 C.ar    1  UNL         0.0652
     28 C          -6.7996    0.6451   62.7501 C.ar    1  UNL        -0.0383
     29 C          -6.9123    0.7920   64.1419 C.ar    1  UNL        -0.0588
     30 C          -8.1850    0.6958   64.7258 C.ar    1  UNL        -0.0438
     31 C          -9.2925    0.4562   63.8945 C.ar    1  UNL         0.0272
     32 N          -9.1861    0.3147   62.5577 N.ar    1  UNL        -0.2590
     33 CL         -3.8914    2.5744   51.8691 Cl      1  UNL        -0.0843
     34 H          -4.9469   -0.0975   51.6716 H       1  UNL         0.0639
     35 H          -7.0733   -1.0893   52.4425 H       1  UNL         0.0652
     36 H          -6.1278    3.7326   53.2656 H       1  UNL         0.0655
     37 H          -8.8060   -1.6569   54.5660 H       1  UNL         0.0586
     38 H          -9.0750   -1.6075   52.7982 H       1  UNL         0.0586
     39 H         -11.1801   -2.2579   53.5525 H       1  UNL         0.0455
     40 H         -11.3875   -0.5059   53.4065 H       1  UNL         0.0455
     41 H          -9.6633   -2.3210   56.2447 H       1  UNL         0.0431
     42 H         -11.0552   -3.3152   55.7895 H       1  UNL         0.0431
     43 H         -10.8650   -3.1132   58.2547 H       1  UNL         0.0288
     44 H         -12.3857   -2.4805   57.6387 H       1  UNL         0.0288
     45 H         -11.6851   -0.8919   59.2407 H       1  UNL         0.0402
     46 H         -11.1899    1.1843   57.8596 H       1  UNL         0.0288
     47 H         -12.5994    0.2331   57.4081 H       1  UNL         0.0288
     48 H          -9.9022    0.2753   55.9659 H       1  UNL         0.0431
     49 H         -11.4555    0.8781   55.3784 H       1  UNL         0.0431
     50 H         -10.0180    0.4893   60.3183 H       1  UNL         0.1504
     51 H          -7.3128   -0.6719   60.2910 H       1  UNL         0.0624
     52 H          -6.1178    0.2203   58.3609 H       1  UNL         0.0626
     53 H          -4.9715    2.1591   57.3264 H       1  UNL         0.0623
     54 H          -5.3847    4.4610   58.1830 H       1  UNL         0.0623
     55 H          -6.9612    4.8169   60.0780 H       1  UNL         0.0623
     56 H          -8.1183    2.8825   61.1166 H       1  UNL         0.0626
     57 H          -5.8269    0.7136   62.2726 H       1  UNL         0.0643
     58 H          -6.0336    0.9756   64.7534 H       1  UNL         0.0624
     59 H          -8.3121    0.8038   65.7989 H       1  UNL         0.0639
     60 H         -10.2956    0.3746   64.3114 H       1  UNL         0.0840
@<TRIPOS>BOND
     1     1     2   ar
     2     1     6   ar
     3     1    33    1
     4     2     3   ar
     5     2    34    1
     6     3     4   ar
     7     3    35    1
     8     4     5   ar
     9     4     8    1
    10     5     6   ar
    11     5     7    1
    12     6    36    1
    13     8     9    1
    14     9    10    1
    15     9    37    1
    16     9    38    1
    17    10    11    1
    18    10    39    1
    19    10    40    1
    20    11    12    1
    21    11    16    1
    22    12    13    1
    23    12    41    1
    24    12    42    1
    25    13    14    1
    26    13    43    1
    27    13    44    1
    28    14    15    1
    29    14    17    1
    30    14    45    1
    31    15    16    1
    32    15    46    1
    33    15    47    1
    34    16    48    1
    35    16    49    1
    36    17    18    2
    37    17    19   am
    38    19    20    1
    39    19    50    1
    40    20    21    1
    41    20    27    1
    42    20    51    1
    43    21    22   ar
    44    21    26   ar
    45    22    23   ar
    46    22    52    1
    47    23    24   ar
    48    23    53    1
    49    24    25   ar
    50    24    54    1
    51    25    26   ar
    52    25    55    1
    53    26    56    1
    54    27    28   ar
    55    27    32   ar
    56    28    29   ar
    57    28    57    1
    58    29    30   ar
    59    29    58    1
    60    30    31   ar
    61    30    59    1
    62    31    32   ar
    63    31    60    1
@<TRIPOS>SUBSTRUCTURE
     1 UNL         1 TEMP              0 ****  ****    0 ROOT


##########                                Name:    ZINC001596273020
##########                DOCK_Rotatable_Bonds:                  11
##########                         Heavy_Atoms:                  25
##########                    Molecular_Weight:             355.478
##########                DOCK_Rotatable_Bonds:                  11
##########                       Formal_Charge:          -0.0499996
##########                     HBond_Acceptors:                   7
##########                        HBond_Donors:                   2
##########                         Heavy_Atoms:                  25
##########                          Grid_Score:          -36.894402
##########                     Grid_vdw_energy:          -28.472845
##########                      Grid_es_energy:           -8.421557
##########           Internal_energy_repulsive:           24.788977

@<TRIPOS>MOLECULE
ZINC001596273020
 58 59 1 0 0
SMALL
USER_CHARGES


@<TRIPOS>ATOM
      1 C1         -3.0749    2.8546   52.0440 C.3     1  ZINC001596273020   -0.1900
      2 C2         -4.2947    2.0238   51.6404 C.3     1  ZINC001596273020   -0.0200
      3 N3         -5.2120    1.9139   52.7825 N.4     1  ZINC001596273020   -0.3900
      4 H4         -4.7226    1.5158   53.5699 H       1  ZINC001596273020    0.4300
      5 C5         -5.7109    3.2486   53.1399 C.3     1  ZINC001596273020   -0.0100
      6 C6         -6.4137    3.8707   51.9318 C.3     1  ZINC001596273020   -0.1900
      7 C7         -6.3429    1.0490   52.4207 C.3     1  ZINC001596273020   -0.0100
      8 C8         -7.3984    1.1000   53.5272 C.3     1  ZINC001596273020    0.0300
      9 O9         -8.2588   -0.0357   53.4173 O.3     1  ZINC001596273020   -0.3900
     10 C10        -9.3143   -0.0606   54.3803 C.3     1  ZINC001596273020    0.0500
     11 C11       -10.3536   -1.1060   53.9709 C.3     1  ZINC001596273020    0.1400
     12 N12       -11.4086   -1.1693   54.9854 N.am    1  ZINC001596273020   -0.7500
     13 C13       -11.3257   -2.0652   55.9889 C.2     1  ZINC001596273020    0.7200
     14 O14       -10.3761   -2.8220   56.0513 O.2     1  ZINC001596273020   -0.6000
     15 N15       -12.2954   -2.1223   56.9231 N.am    1  ZINC001596273020   -0.6300
     16 C16       -12.3750   -3.0270   58.0966 C.3     1  ZINC001596273020    0.1100
     17 C17       -12.8934   -2.1025   59.2357 C.3     1  ZINC001596273020   -0.0800
     18 H18       -13.5152   -2.6776   59.9219 H       1  ZINC001596273020    0.1200
     19 C19       -11.6832   -1.5633   59.9717 C.3     1  ZINC001596273020   -0.1000
     20 C20       -11.9234   -0.1873   60.5769 C.3     1  ZINC001596273020   -0.1200
     21 C21       -12.3033    0.7720   59.4411 C.3     1  ZINC001596273020   -0.1200
     22 C22       -13.6772    0.3555   58.9258 C.3     1  ZINC001596273020   -0.0800
     23 C23       -13.7414   -1.0779   58.5148 C.3     1  ZINC001596273020   -0.1400
     24 C24       -15.1671   -1.5069   58.7478 C.2     1  ZINC001596273020    0.5000
     25 O25       -16.0310   -0.6697   58.9464 O.co2   1  ZINC001596273020   -0.6900
     26 O26       -15.4568   -2.6912   58.7379 O.co2   1  ZINC001596273020   -0.6900
     27 C27       -13.5203   -1.2908   57.0134 C.3     1  ZINC001596273020    0.1600
     28 H28        -3.3835    3.8813   52.2404 H       1  ZINC001596273020    0.0800
     29 H29        -2.6284    2.4310   52.9436 H       1  ZINC001596273020    0.0800
     30 H30        -2.3439    2.8432   51.2355 H       1  ZINC001596273020    0.1000
     31 H31        -4.8059    2.5092   50.8090 H       1  ZINC001596273020    0.1300
     32 H32        -3.9717    1.0280   51.3367 H       1  ZINC001596273020    0.1300
     33 H33        -6.4162    3.1635   53.9666 H       1  ZINC001596273020    0.1300
     34 H34        -4.8749    3.8808   53.4393 H       1  ZINC001596273020    0.1300
     35 H35        -5.6844    4.0577   51.1436 H       1  ZINC001596273020    0.0800
     36 H36        -7.1785    3.1865   51.5643 H       1  ZINC001596273020    0.0800
     37 H37        -6.8791    4.8113   52.2268 H       1  ZINC001596273020    0.1000
     38 H38        -6.7807    1.3958   51.4847 H       1  ZINC001596273020    0.1400
     39 H39        -5.9923    0.0239   52.3001 H       1  ZINC001596273020    0.1400
     40 H40        -6.9062    1.0901   54.4996 H       1  ZINC001596273020    0.1000
     41 H41        -7.9864    2.0122   53.4268 H       1  ZINC001596273020    0.0700
     42 H42        -8.9075   -0.3165   55.3587 H       1  ZINC001596273020    0.0700
     43 H43        -9.7856    0.9210   54.4282 H       1  ZINC001596273020    0.0700
     44 H44       -10.7889   -0.8289   53.0108 H       1  ZINC001596273020    0.0900
     45 H45        -9.8738   -2.0809   53.8844 H       1  ZINC001596273020    0.0700
     46 H46       -12.1667   -0.5663   54.9350 H       1  ZINC001596273020    0.3900
     47 H47       -13.0798   -3.8371   57.9093 H       1  ZINC001596273020    0.0700
     48 H48       -11.3900   -3.4234   58.3427 H       1  ZINC001596273020    0.0600
     49 H49       -11.4194   -2.2571   60.7699 H       1  ZINC001596273020    0.0500
     50 H50       -10.8478   -1.4995   59.2745 H       1  ZINC001596273020    0.0400
     51 H51       -12.7360   -0.2405   61.3014 H       1  ZINC001596273020    0.0700
     52 H52       -11.0149    0.1632   61.0666 H       1  ZINC001596273020    0.0500
     53 H53       -12.3441    1.7938   59.8184 H       1  ZINC001596273020    0.0600
     54 H54       -11.5703    0.7024   58.6375 H       1  ZINC001596273020    0.0500
     55 H55       -14.4130    0.5291   59.7111 H       1  ZINC001596273020    0.0600
     56 H56       -13.9321    0.9772   58.0675 H       1  ZINC001596273020    0.0600
     57 H57       -13.3726   -0.3344   56.5118 H       1  ZINC001596273020    0.0700
     58 H58       -14.3653   -1.8232   56.5767 H       1  ZINC001596273020    0.0700
@<TRIPOS>BOND
     1     1     2    1
     2     1    28    1
     3     1    29    1
     4     1    30    1
     5     2     3    1
     6     2    31    1
     7     2    32    1
     8     3     4    1
     9     3     5    1
    10     3     7    1
    11     5     6    1
    12     5    33    1
    13     5    34    1
    14     6    35    1
    15     6    36    1
    16     6    37    1
    17     7     8    1
    18     7    38    1
    19     7    39    1
    20     8     9    1
    21     8    40    1
    22     8    41    1
    23     9    10    1
    24    10    11    1
    25    10    42    1
    26    10    43    1
    27    11    12    1
    28    11    44    1
    29    11    45    1
    30    12    13   am
    31    12    46    1
    32    13    14    2
    33    13    15   am
    34    15    27    1
    35    15    16    1
    36    16    17    1
    37    16    47    1
    38    16    48    1
    39    17    18    1
    40    17    23    1
    41    17    19    1
    42    19    20    1
    43    19    49    1
    44    19    50    1
    45    20    21    1
    46    20    51    1
    47    20    52    1
    48    21    22    1
    49    21    53    1
    50    21    54    1
    51    22    23    1
    52    22    55    1
    53    22    56    1
    54    23    24    1
    55    23    27    1
    56    24    25   ar
    57    24    26   ar
    58    27    57    1
    59    27    58    1
@<TRIPOS>SUBSTRUCTURE
     1 ZINC001596273020        1 TEMP              0 ****  ****    0 ROOT


##########                                Name:     oleObject70.pdb
##########                DOCK_Rotatable_Bonds:                   9
##########                         Heavy_Atoms:                  35
##########                    Molecular_Weight:             504.458
##########                DOCK_Rotatable_Bonds:                   9
##########                       Formal_Charge:          0.00010002
##########                     HBond_Acceptors:                   6
##########                        HBond_Donors:                   2
##########                         Heavy_Atoms:                  35
##########                          Grid_Score:          -36.886993
##########                     Grid_vdw_energy:          -37.386829
##########                      Grid_es_energy:            0.499836
##########           Internal_energy_repulsive:            9.737934

@<TRIPOS>MOLECULE
oleObject70.pdb
 62 65 1 0 0
SMALL
NO_CHARGES


@<TRIPOS>ATOM
      1 C          -0.0466    2.5035   65.7854 C.ar    1  UNL        -0.0620
      2 C           1.2763    2.8022   65.4292 C.ar    1  UNL        -0.0590
      3 C           1.8987    2.1419   64.3520 C.ar    1  UNL        -0.0456
      4 C           1.1775    1.1707   63.6115 C.ar    1  UNL        -0.0187
      5 C          -0.1486    0.8708   63.9925 C.ar    1  UNL        -0.0565
      6 C          -0.7578    1.5329   65.0686 C.ar    1  UNL        -0.0619
      7 C           1.8244    0.4288   62.4282 C.3     1  UNL         0.0909
      8 C           1.5885   -1.0915   62.4395 C.ar    1  UNL         0.0681
      9 C           2.2949   -1.9505   63.3194 C.ar    1  UNL        -0.0272
     10 C           2.0261   -3.3314   63.2662 C.ar    1  UNL        -0.0559
     11 C           1.0728   -3.8082   62.3552 C.ar    1  UNL        -0.0435
     12 C           0.4155   -2.8867   61.5269 C.ar    1  UNL         0.0272
     13 N           0.6651   -1.5650   61.5704 N.ar    1  UNL        -0.2587
     14 C           3.3320   -1.4310   64.3089 C.3     1  UNL        -0.0379
     15 N           1.5651    1.0860   61.1281 N.am    1  UNL        -0.2987
     16 C           2.4084    1.1023   60.0239 C.2     1  UNL         0.2437
     17 O           3.4912    0.5424   60.0147 O.2     1  UNL        -0.2719
     18 C           1.9053    1.8484   58.8112 C.ar    1  UNL         0.0371
     19 C           0.5569    2.2510   58.6823 C.ar    1  UNL        -0.0494
     20 C           0.1232    2.9452   57.5407 C.ar    1  UNL        -0.0570
     21 C           1.0245    3.2502   56.5075 C.ar    1  UNL        -0.0341
     22 C           2.3672    2.8558   56.6284 C.ar    1  UNL        -0.0570
     23 C           2.8022    2.1609   57.7686 C.ar    1  UNL        -0.0494
     24 C           0.5533    4.0076   55.2774 C.3     1  UNL         0.0208
     25 N          -0.6581    3.4032   54.7090 N.4     1  UNL        -0.3086
     26 C          -1.3369    4.2525   53.7212 C.3     1  UNL         0.0223
     27 C          -2.4925    3.5187   53.0543 C.ar    1  UNL        -0.0154
     28 C          -2.2374    2.7021   51.9359 C.ar    1  UNL        -0.0548
     29 C          -3.2840    2.0104   51.3045 C.ar    1  UNL        -0.0431
     30 C          -4.5954    2.1298   51.7898 C.ar    1  UNL         0.0421
     31 C          -4.8605    2.9385   52.9061 C.ar    1  UNL        -0.0245
     32 C          -3.8142    3.6313   53.5387 C.ar    1  UNL         0.0465
     33 CL         -4.1945    4.6221   54.9357 Cl      1  UNL        -0.0839
     34 CL         -5.9009    1.2673   51.0044 Cl      1  UNL        -0.0843
     35 C           3.3488    2.4881   64.0284 C.3     1  UNL        -0.0394
     36 H          -0.5150    3.0158   66.6208 H       1  UNL         0.0623
     37 H           1.8221    3.5483   65.9999 H       1  UNL         0.0626
     38 H          -0.7146    0.1121   63.4625 H       1  UNL         0.0627
     39 H          -1.7786    1.2889   65.3484 H       1  UNL         0.0623
     40 H           2.9037    0.5516   62.5583 H       1  UNL         0.0624
     41 H           2.5485   -4.0252   63.9186 H       1  UNL         0.0627
     42 H           0.8475   -4.8685   62.2914 H       1  UNL         0.0639
     43 H          -0.3315   -3.2148   60.8055 H       1  UNL         0.0840
     44 H           4.1943   -0.9987   63.7870 H       1  UNL         0.0280
     45 H           3.7108   -2.2336   64.9540 H       1  UNL         0.0280
     46 H           2.9071   -0.6613   64.9645 H       1  UNL         0.0280
     47 H           0.6880    1.5792   61.0360 H       1  UNL         0.1508
     48 H          -0.1691    2.0335   59.4589 H       1  UNL         0.0631
     49 H          -0.9165    3.2505   57.4604 H       1  UNL         0.0626
     50 H           3.0767    3.0899   55.8396 H       1  UNL         0.0626
     51 H           3.8459    1.8673   57.8390 H       1  UNL         0.0631
     52 H           1.3548    4.0096   54.5271 H       1  UNL         0.0479
     53 H           0.3534    5.0516   55.5518 H       1  UNL         0.0479
     54 H          -1.3080    3.1864   55.4644 H       1  UNL         0.1229
     55 H          -0.6179    4.5684   52.9543 H       1  UNL         0.0480
     56 H          -1.7147    5.1621   54.2056 H       1  UNL         0.0480
     57 H          -1.2243    2.6005   51.5566 H       1  UNL         0.0627
     58 H          -3.0774    1.3824   50.4425 H       1  UNL         0.0639
     59 H          -5.8757    3.0270   53.2821 H       1  UNL         0.0654
     60 H           3.7896    3.1428   64.7906 H       1  UNL         0.0280
     61 H           3.4242    3.0088   63.0658 H       1  UNL         0.0280
     62 H           3.9711    1.5857   63.9792 H       1  UNL         0.0280
@<TRIPOS>BOND
     1     1     2   ar
     2     1     6   ar
     3     1    36    1
     4     2     3   ar
     5     2    37    1
     6     3     4   ar
     7     3    35    1
     8     4     5   ar
     9     4     7    1
    10     5     6   ar
    11     5    38    1
    12     6    39    1
    13     7     8    1
    14     7    15    1
    15     7    40    1
    16     8     9   ar
    17     8    13   ar
    18     9    10   ar
    19     9    14    1
    20    10    11   ar
    21    10    41    1
    22    11    12   ar
    23    11    42    1
    24    12    13   ar
    25    12    43    1
    26    14    44    1
    27    14    45    1
    28    14    46    1
    29    15    16   am
    30    15    47    1
    31    16    17    2
    32    16    18    1
    33    18    19   ar
    34    18    23   ar
    35    19    20   ar
    36    19    48    1
    37    20    21   ar
    38    20    49    1
    39    21    22   ar
    40    21    24    1
    41    22    23   ar
    42    22    50    1
    43    23    51    1
    44    24    25    1
    45    24    52    1
    46    24    53    1
    47    25    26    1
    48    25    54    1
    49    26    27    1
    50    26    55    1
    51    26    56    1
    52    27    28   ar
    53    27    32   ar
    54    28    29   ar
    55    28    57    1
    56    29    30   ar
    57    29    58    1
    58    30    31   ar
    59    30    34    1
    60    31    32   ar
    61    31    59    1
    62    32    33    1
    63    35    60    1
    64    35    61    1
    65    35    62    1
@<TRIPOS>SUBSTRUCTURE
     1 UNL         1 TEMP              0 ****  ****    0 ROOT


##########                                Name:    ZINC000062291520
##########                DOCK_Rotatable_Bonds:                  10
##########                         Heavy_Atoms:                  29
##########                    Molecular_Weight:             398.502
##########                DOCK_Rotatable_Bonds:                  10
##########                       Formal_Charge:          -0.0100006
##########                     HBond_Acceptors:                   6
##########                        HBond_Donors:                   1
##########                         Heavy_Atoms:                  29
##########                          Grid_Score:          -36.562164
##########                     Grid_vdw_energy:          -37.153801
##########                      Grid_es_energy:            0.591636
##########           Internal_energy_repulsive:           60.739819

@<TRIPOS>MOLECULE
ZINC000062291520
 59 61 1 0 0
SMALL
USER_CHARGES


@<TRIPOS>ATOM
      1 C1         -2.6375    1.3791   50.6108 C.3     1  ZINC000062291520    0.0300
      2 O2         -1.7892    2.1737   51.4421 O.3     1  ZINC000062291520   -0.3100
      3 C3         -2.3977    2.9969   52.3374 C.ar    1  ZINC000062291520    0.1000
      4 C4         -1.6366    3.7615   53.2063 C.ar    1  ZINC000062291520   -0.1700
      5 C5         -2.2572    4.5937   54.1198 C.ar    1  ZINC000062291520   -0.1200
      6 C6         -3.6365    4.6695   54.1646 C.ar    1  ZINC000062291520   -0.1200
      7 C7         -4.4020    3.9136   53.2957 C.ar    1  ZINC000062291520   -0.1700
      8 C8         -3.7867    3.0778   52.3782 C.ar    1  ZINC000062291520    0.1000
      9 O9         -4.5382    2.3339   51.5230 O.3     1  ZINC000062291520   -0.3100
     10 C10        -5.9490    2.3130   51.7492 C.3     1  ZINC000062291520    0.0700
     11 C11        -6.2562    1.4522   52.9761 C.3     1  ZINC000062291520   -0.1400
     12 C12        -7.7256    1.5429   53.2984 C.2     1  ZINC000062291520    0.5200
     13 O13        -8.3202    2.5862   53.1288 O.2     1  ZINC000062291520   -0.5400
     14 N14        -8.3787    0.4647   53.7751 N.am    1  ZINC000062291520   -0.7200
     15 C15        -9.8067    0.5534   54.0900 C.3     1  ZINC000062291520    0.1600
     16 C16       -10.1602   -0.4904   55.1179 C.ar    1  ZINC000062291520   -0.1100
     17 C17        -9.4667   -1.6853   55.1562 C.ar    1  ZINC000062291520   -0.1000
     18 C18        -9.7908   -2.6427   56.0996 C.ar    1  ZINC000062291520   -0.1200
     19 C19       -10.8083   -2.4049   57.0043 C.ar    1  ZINC000062291520   -0.0900
     20 C20       -11.5023   -1.2098   56.9656 C.ar    1  ZINC000062291520   -0.0800
     21 C21       -12.6119   -0.9507   57.9519 C.3     1  ZINC000062291520    0.0900
     22 N22       -13.6209   -2.0129   57.8442 N.3     1  ZINC000062291520   -0.5300
     23 C23       -14.2621   -2.2639   59.1431 C.3     1  ZINC000062291520    0.0100
     24 C24       -15.2609   -3.4153   58.9989 C.3     1  ZINC000062291520    0.0600
     25 O25       -16.2105   -3.0911   57.9799 O.3     1  ZINC000062291520   -0.3800
     26 C26       -15.6203   -2.8411   56.7014 C.3     1  ZINC000062291520    0.0900
     27 H27       -15.0996   -3.7356   56.3597 H       1  ZINC000062291520    0.0700
     28 C28       -16.7140   -2.4717   55.6974 C.3     1  ZINC000062291520   -0.1500
     29 C29       -14.6252   -1.6839   56.8223 C.3     1  ZINC000062291520    0.0200
     30 C30       -11.1745   -0.2503   56.0263 C.ar    1  ZINC000062291520   -0.0900
     31 H31        -3.2527    0.7302   51.2342 H       1  ZINC000062291520    0.0500
     32 H32        -3.2805    2.0309   50.0193 H       1  ZINC000062291520    0.0600
     33 H33        -2.0263    0.7701   49.9447 H       1  ZINC000062291520    0.1000
     34 H34        -0.5587    3.7041   53.1734 H       1  ZINC000062291520    0.1400
     35 H35        -1.6627    5.1862   54.7995 H       1  ZINC000062291520    0.1300
     36 H36        -4.1175    5.3206   54.8794 H       1  ZINC000062291520    0.1300
     37 H37        -5.4797    3.9751   53.3322 H       1  ZINC000062291520    0.1400
     38 H38        -6.4506    1.8942   50.8767 H       1  ZINC000062291520    0.0700
     39 H39        -6.3047    3.3291   51.9199 H       1  ZINC000062291520    0.0700
     40 H40        -5.6750    1.8103   53.8259 H       1  ZINC000062291520    0.1100
     41 H41        -5.9934    0.4151   52.7674 H       1  ZINC000062291520    0.1100
     42 H42        -7.9034   -0.3701   53.9096 H       1  ZINC000062291520    0.4000
     43 H43       -10.0305    1.5439   54.4861 H       1  ZINC000062291520    0.0800
     44 H44       -10.3897    0.3839   53.1847 H       1  ZINC000062291520    0.0800
     45 H45        -8.6714   -1.8709   54.4495 H       1  ZINC000062291520    0.1200
     46 H46        -9.2486   -3.5763   56.1297 H       1  ZINC000062291520    0.1300
     47 H47       -11.0613   -3.1529   57.7412 H       1  ZINC000062291520    0.1200
     48 H48       -12.2039   -0.9381   58.9626 H       1  ZINC000062291520    0.0500
     49 H49       -13.0736    0.0125   57.7344 H       1  ZINC000062291520    0.0900
     50 H50       -13.5029   -2.5306   59.8784 H       1  ZINC000062291520    0.0900
     51 H51       -14.7858   -1.3657   59.4701 H       1  ZINC000062291520    0.0400
     52 H52       -14.7290   -4.3263   58.7243 H       1  ZINC000062291520    0.0600
     53 H53       -15.7800   -3.5673   59.9452 H       1  ZINC000062291520    0.1000
     54 H54       -17.2333   -1.5763   56.0388 H       1  ZINC000062291520    0.0600
     55 H55       -16.2636   -2.2812   54.7232 H       1  ZINC000062291520    0.0700
     56 H56       -17.4243   -3.2944   55.6146 H       1  ZINC000062291520    0.0700
     57 H57       -15.1554   -0.7766   57.1118 H       1  ZINC000062291520    0.0400
     58 H58       -14.1310   -1.5272   55.8635 H       1  ZINC000062291520    0.0900
     59 H59       -11.7134    0.6851   55.9992 H       1  ZINC000062291520    0.1200
@<TRIPOS>BOND
     1     1     2    1
     2     1    31    1
     3     1    32    1
     4     1    33    1
     5     2     3    1
     6     3     8   ar
     7     3     4   ar
     8     4     5   ar
     9     4    34    1
    10     5     6   ar
    11     5    35    1
    12     6     7   ar
    13     6    36    1
    14     7     8   ar
    15     7    37    1
    16     8     9    1
    17     9    10    1
    18    10    11    1
    19    10    38    1
    20    10    39    1
    21    11    12    1
    22    11    40    1
    23    11    41    1
    24    12    13    2
    25    12    14   am
    26    14    15    1
    27    14    42    1
    28    15    16    1
    29    15    43    1
    30    15    44    1
    31    16    30   ar
    32    16    17   ar
    33    17    18   ar
    34    17    45    1
    35    18    19   ar
    36    18    46    1
    37    19    20   ar
    38    19    47    1
    39    20    21    1
    40    20    30   ar
    41    21    22    1
    42    21    48    1
    43    21    49    1
    44    22    29    1
    45    22    23    1
    46    23    24    1
    47    23    50    1
    48    23    51    1
    49    24    25    1
    50    24    52    1
    51    24    53    1
    52    25    26    1
    53    26    27    1
    54    26    28    1
    55    26    29    1
    56    28    54    1
    57    28    55    1
    58    28    56    1
    59    29    57    1
    60    29    58    1
    61    30    59    1
@<TRIPOS>SUBSTRUCTURE
     1 ZINC000062291520        1 TEMP              0 ****  ****    0 ROOT


##########                                Name:    ZINC000428266315
##########                DOCK_Rotatable_Bonds:                  10
##########                         Heavy_Atoms:                  30
##########                    Molecular_Weight:             423.438
##########                DOCK_Rotatable_Bonds:                  10
##########                       Formal_Charge:          0.00999977
##########                     HBond_Acceptors:                  10
##########                        HBond_Donors:                   0
##########                         Heavy_Atoms:                  30
##########                          Grid_Score:          -36.494030
##########                     Grid_vdw_energy:          -36.660397
##########                      Grid_es_energy:            0.166366
##########           Internal_energy_repulsive:           18.537800

@<TRIPOS>MOLECULE
ZINC000428266315
 54 56 1 0 0
SMALL
USER_CHARGES


@<TRIPOS>ATOM
      1 C1          1.2949   -4.7949   63.8413 C.3     1  ZINC000428266315   -0.1500
      2 C2          2.3295   -4.6938   62.7186 C.3     1  ZINC000428266315    0.0600
      3 O3          2.0730   -3.5242   61.9385 O.3     1  ZINC000428266315   -0.3700
      4 C4          2.1155   -2.3067   62.6854 C.3     1  ZINC000428266315    0.1800
      5 H5          1.3544   -2.3320   63.4653 H       1  ZINC000428266315    0.0900
      6 C6          3.4963   -2.1488   63.3252 C.3     1  ZINC000428266315   -0.1700
      7 C7          1.8526   -1.1431   61.7646 C.2     1  ZINC000428266315    0.1700
      8 N8          0.6916   -0.6310   61.4846 N.2     1  ZINC000428266315   -0.3500
      9 O9          0.8167    0.2957   60.7121 O.3     1  ZINC000428266315    0.0800
     10 C10         2.1086    0.4682   60.4170 C.2     1  ZINC000428266315    0.1900
     11 C11         2.6874    1.5108   59.4956 C.3     1  ZINC000428266315    0.1500
     12 N12         1.5973    2.2171   58.8092 N.3     1  ZINC000428266315   -0.5300
     13 C13         1.1124    3.3460   59.6145 C.3     1  ZINC000428266315    0.0200
     14 C14         2.0180    2.6645   57.4748 C.3     1  ZINC000428266315    0.1400
     15 C15         0.8013    2.9936   56.6487 C.2     1  ZINC000428266315   -0.2300
     16 C16         0.7494    3.8765   55.6245 C.2     1  ZINC000428266315    0.0800
     17 N17        -0.5137    3.8819   55.1496 N.pl3   1  ZINC000428266315   -0.3700
     18 C18        -1.0132    4.6950   54.0381 C.3     1  ZINC000428266315    0.1700
     19 C19        -2.2496    4.0538   53.4626 C.ar    1  ZINC000428266315   -0.0800
     20 C20        -2.1334    3.0754   52.4931 C.ar    1  ZINC000428266315   -0.1000
     21 C21        -3.2675    2.4873   51.9651 C.ar    1  ZINC000428266315   -0.0700
     22 C22        -4.5179    2.8772   52.4071 C.ar    1  ZINC000428266315   -0.1700
     23 C23        -5.7543    2.2364   51.8312 C.3     1  ZINC000428266315    0.5100
     24 F24        -5.4825    1.7776   50.5378 F       1  ZINC000428266315   -0.1700
     25 F25        -6.1396    1.1593   52.6366 F       1  ZINC000428266315   -0.1800
     26 F26        -6.7885    3.1773   51.7845 F       1  ZINC000428266315   -0.1800
     27 C27        -4.6341    3.8547   53.3776 C.ar    1  ZINC000428266315   -0.0700
     28 C28        -3.4998    4.4401   53.9083 C.ar    1  ZINC000428266315   -0.0800
     29 N29        -1.2629    2.9723   55.9071 N.2     1  ZINC000428266315   -0.2900
     30 C30        -0.4724    2.4361   56.8012 C.2     1  ZINC000428266315    0.0600
     31 N31         2.7770   -0.4401   61.0862 N.2     1  ZINC000428266315   -0.4600
     32 H32         1.4903   -5.6870   64.4363 H       1  ZINC000428266315    0.0700
     33 H33         1.3614   -3.9122   64.4772 H       1  ZINC000428266315    0.0600
     34 H34         0.2957   -4.8575   63.4101 H       1  ZINC000428266315    0.0600
     35 H35         3.3286   -4.6312   63.1498 H       1  ZINC000428266315    0.0500
     36 H36         2.2628   -5.5766   62.0826 H       1  ZINC000428266315    0.0500
     37 H37         4.2574   -2.1235   62.5454 H       1  ZINC000428266315    0.0700
     38 H38         3.5287   -1.2202   63.8949 H       1  ZINC000428266315    0.0700
     39 H39         3.6864   -2.9905   63.9913 H       1  ZINC000428266315    0.0700
     40 H40         3.2735    2.2235   60.0758 H       1  ZINC000428266315    0.0800
     41 H41         3.3286    1.0283   58.7580 H       1  ZINC000428266315    0.1200
     42 H42         1.9293    4.0470   59.7866 H       1  ZINC000428266315    0.0400
     43 H43         0.3060    3.8514   59.0831 H       1  ZINC000428266315    0.0800
     44 H44         0.7423    2.9775   60.5711 H       1  ZINC000428266315    0.0600
     45 H45         2.6436    3.5521   57.5697 H       1  ZINC000428266315    0.0500
     46 H46         2.5844    1.8711   56.9874 H       1  ZINC000428266315    0.0900
     47 H47         1.5717    4.4705   55.2536 H       1  ZINC000428266315    0.1700
     48 H48        -1.2567    5.6941   54.3995 H       1  ZINC000428266315    0.1000
     49 H49        -0.2470    4.7646   53.2660 H       1  ZINC000428266315    0.1100
     50 H50        -1.1564    2.7708   52.1477 H       1  ZINC000428266315    0.1300
     51 H51        -3.1767    1.7232   51.2072 H       1  ZINC000428266315    0.1400
     52 H52        -5.6110    4.1591   53.7232 H       1  ZINC000428266315    0.1400
     53 H53        -3.5906    5.2038   54.6666 H       1  ZINC000428266315    0.1400
     54 H54        -0.7561    1.6965   57.5353 H       1  ZINC000428266315    0.1800
@<TRIPOS>BOND
     1     1     2    1
     2     1    32    1
     3     1    33    1
     4     1    34    1
     5     2     3    1
     6     2    35    1
     7     2    36    1
     8     3     4    1
     9     4     5    1
    10     4     6    1
    11     4     7    1
    12     6    37    1
    13     6    38    1
    14     6    39    1
    15     7    31    1
    16     7     8    2
    17     8     9    1
    18     9    10    1
    19    10    11    1
    20    10    31    2
    21    11    12    1
    22    11    40    1
    23    11    41    1
    24    12    13    1
    25    12    14    1
    26    13    42    1
    27    13    43    1
    28    13    44    1
    29    14    15    1
    30    14    45    1
    31    14    46    1
    32    15    30    1
    33    15    16    2
    34    16    17    1
    35    16    47    1
    36    17    18    1
    37    17    29    1
    38    18    19    1
    39    18    48    1
    40    18    49    1
    41    19    28   ar
    42    19    20   ar
    43    20    21   ar
    44    20    50    1
    45    21    22   ar
    46    21    51    1
    47    22    23    1
    48    22    27   ar
    49    23    24    1
    50    23    25    1
    51    23    26    1
    52    27    28   ar
    53    27    52    1
    54    28    53    1
    55    29    30    2
    56    30    54    1
@<TRIPOS>SUBSTRUCTURE
     1 ZINC000428266315        1 TEMP              0 ****  ****    0 ROOT


##########                                Name:    ZINC001591898574
##########                DOCK_Rotatable_Bonds:                  10
##########                         Heavy_Atoms:                  26
##########                    Molecular_Weight:             383.434
##########                DOCK_Rotatable_Bonds:                  10
##########                       Formal_Charge:         5.96046e-08
##########                     HBond_Acceptors:                  13
##########                        HBond_Donors:                   3
##########                         Heavy_Atoms:                  26
##########                          Grid_Score:          -35.682827
##########                     Grid_vdw_energy:          -32.213932
##########                      Grid_es_energy:           -3.468895
##########           Internal_energy_repulsive:           10.619572

@<TRIPOS>MOLECULE
ZINC001591898574
 47 48 1 0 0
SMALL
USER_CHARGES


@<TRIPOS>ATOM
      1 C1         -7.9052    3.0946   56.7850 C.3     1  ZINC001591898574   -0.1100
      2 C2         -7.7493    2.2839   55.5241 C.ar    1  ZINC001591898574    0.2300
      3 C3         -6.7330    2.5701   54.6299 C.ar    1  ZINC001591898574   -0.2400
      4 C4         -6.6251    1.7930   53.4741 C.ar    1  ZINC001591898574    0.3000
      5 C5         -5.5520    2.0600   52.4844 C.2     1  ZINC001591898574    0.2100
      6 N6         -4.5988    2.9656   52.5814 N.2     1  ZINC001591898574   -0.2500
      7 N7         -3.8677    2.8834   51.5233 N.pl3   1  ZINC001591898574   -0.2200
      8 N8         -4.3271    1.9549   50.7591 N.2     1  ZINC001591898574   -0.0400
      9 N9         -5.3597    1.4233   51.3203 N.2     1  ZINC001591898574   -0.2500
     10 N10        -7.4988    0.8096   53.2743 N.ar    1  ZINC001591898574   -0.5500
     11 C11        -8.4566    0.5691   54.1559 C.ar    1  ZINC001591898574    0.5800
     12 N12        -9.3493   -0.4616   53.9176 N.pl3   1  ZINC001591898574   -0.7000
     13 C13        -9.5823   -1.4807   54.9439 C.3     1  ZINC001591898574    0.1400
     14 C14       -11.0174   -1.3643   55.4615 C.3     1  ZINC001591898574   -0.1500
     15 C15       -11.1751   -2.2154   56.7231 C.3     1  ZINC001591898574    0.1200
     16 N16       -12.5476   -2.0995   57.2220 N.am    1  ZINC001591898574   -0.7300
     17 C17       -12.8055   -2.2778   58.5328 C.2     1  ZINC001591898574    0.4900
     18 O18       -11.9011   -2.5327   59.2996 O.2     1  ZINC001591898574   -0.5300
     19 C19       -14.2177   -2.1603   59.0457 C.3     1  ZINC001591898574    0.1000
     20 N20       -15.1525   -2.6017   58.0075 N.am    1  ZINC001591898574   -0.9800
     21 C21       -15.2797   -4.0271   57.6942 C.3     1  ZINC001591898574    0.1000
     22 S22       -16.0654   -1.4891   57.1882 S.o2    1  ZINC001591898574    2.6100
     23 C23       -17.0501   -2.4773   56.0287 C.3     1  ZINC001591898574   -0.6600
     24 O24       -16.8980   -0.9154   58.1866 O.2     1  ZINC001591898574   -0.9500
     25 O25       -15.1124   -0.7014   56.4876 O.2     1  ZINC001591898574   -0.9600
     26 N26        -8.5797    1.2868   55.2630 N.ar    1  ZINC001591898574   -0.5600
     27 H27        -7.3187    2.6405   57.5837 H       1  ZINC001591898574    0.0900
     28 H28        -7.5538    4.1112   56.6091 H       1  ZINC001591898574    0.0900
     29 H29        -8.9559    3.1182   57.0741 H       1  ZINC001591898574    0.0900
     30 H30        -6.0397    3.3759   54.8208 H       1  ZINC001591898574    0.1600
     31 H31        -3.0928    3.4348   51.3326 H       1  ZINC001591898574    0.4800
     32 H32        -9.8205   -0.5090   53.0711 H       1  ZINC001591898574    0.4200
     33 H33        -9.4304   -2.4707   54.5137 H       1  ZINC001591898574    0.0700
     34 H34        -8.8854   -1.3319   55.7685 H       1  ZINC001591898574    0.0700
     35 H35       -11.2356   -0.3225   55.6964 H       1  ZINC001591898574    0.0800
     36 H36       -11.7093   -1.7169   54.6966 H       1  ZINC001591898574    0.0800
     37 H37       -10.9610   -3.2578   56.4874 H       1  ZINC001591898574    0.0700
     38 H38       -10.4802   -1.8655   57.4867 H       1  ZINC001591898574    0.0700
     39 H39       -13.2708   -1.8944   56.6090 H       1  ZINC001591898574    0.4000
     40 H40       -14.3360   -2.7855   59.9306 H       1  ZINC001591898574    0.1200
     41 H41       -14.4253   -1.1220   59.3039 H       1  ZINC001591898574    0.1300
     42 H42       -16.0530   -4.4695   58.3223 H       1  ZINC001591898574    0.0600
     43 H43       -15.5515   -4.1457   56.6454 H       1  ZINC001591898574    0.0700
     44 H44       -14.3293   -4.5266   57.8820 H       1  ZINC001591898574    0.0700
     45 H45       -17.6691   -3.1808   56.5856 H       1  ZINC001591898574    0.1300
     46 H46       -17.6886   -1.8180   55.4407 H       1  ZINC001591898574    0.1200
     47 H47       -16.3844   -3.0268   55.3632 H       1  ZINC001591898574    0.1300
@<TRIPOS>BOND
     1     1     2    1
     2     1    27    1
     3     1    28    1
     4     1    29    1
     5     2    26   ar
     6     2     3   ar
     7     3     4   ar
     8     3    30    1
     9     4     5    1
    10     4    10   ar
    11     5     9    1
    12     5     6    2
    13     6     7    1
    14     7     8    1
    15     7    31    1
    16     8     9    2
    17    10    11   ar
    18    11    12    1
    19    11    26   ar
    20    12    13    1
    21    12    32    1
    22    13    14    1
    23    13    33    1
    24    13    34    1
    25    14    15    1
    26    14    35    1
    27    14    36    1
    28    15    16    1
    29    15    37    1
    30    15    38    1
    31    16    17   am
    32    16    39    1
    33    17    18    2
    34    17    19    1
    35    19    20    1
    36    19    40    1
    37    19    41    1
    38    20    21    1
    39    20    22   am
    40    21    42    1
    41    21    43    1
    42    21    44    1
    43    22    23    1
    44    22    24    2
    45    22    25    2
    46    23    45    1
    47    23    46    1
    48    23    47    1
@<TRIPOS>SUBSTRUCTURE
     1 ZINC001591898574        1 TEMP              0 ****  ****    0 ROOT


##########                                Name:    ZINC000508765459
##########                DOCK_Rotatable_Bonds:                  10
##########                         Heavy_Atoms:                  29
##########                    Molecular_Weight:               405.5
##########                DOCK_Rotatable_Bonds:                  10
##########                       Formal_Charge:         -6.4075e-07
##########                     HBond_Acceptors:                  10
##########                        HBond_Donors:                   1
##########                         Heavy_Atoms:                  29
##########                          Grid_Score:          -35.596069
##########                     Grid_vdw_energy:          -33.682285
##########                      Grid_es_energy:           -1.913785
##########           Internal_energy_repulsive:           25.863691

@<TRIPOS>MOLECULE
ZINC000508765459
 60 62 1 0 0
SMALL
USER_CHARGES


@<TRIPOS>ATOM
      1 C1         -3.8890    2.0859   51.3121 C.3     1  ZINC000508765459    0.0300
      2 O2         -5.1948    2.6603   51.2283 O.3     1  ZINC000508765459   -0.3900
      3 C3         -6.2556    1.7231   51.4242 C.3     1  ZINC000508765459    0.0500
      4 C4         -6.1081    1.0657   52.7978 C.3     1  ZINC000508765459    0.1100
      5 N5         -7.4204    0.6130   53.2660 N.am    1  ZINC000508765459   -0.5900
      6 C6         -8.1962    1.5265   54.0935 C.3     1  ZINC000508765459    0.1000
      7 C7         -9.6835    1.1706   54.0471 C.3     1  ZINC000508765459    0.1200
      8 N8         -9.8142   -0.2838   54.2386 N.am    1  ZINC000508765459   -0.6400
      9 C9        -10.4869   -0.7950   55.2885 C.2     1  ZINC000508765459    0.7100
     10 O10       -10.5784   -1.9999   55.4236 O.2     1  ZINC000508765459   -0.5800
     11 N11       -11.0580    0.0294   56.1889 N.am    1  ZINC000508765459   -0.7400
     12 C12       -11.7878   -0.5264   57.3313 C.3     1  ZINC000508765459    0.1400
     13 C13       -10.9544   -0.3518   58.6026 C.3     1  ZINC000508765459   -0.1400
     14 C14       -10.8076    1.1386   58.9154 C.3     1  ZINC000508765459    0.0600
     15 N15       -10.2118    1.3029   60.2480 N.3     1  ZINC000508765459   -0.5400
     16 C16        -8.9232    0.6022   60.3388 C.3     1  ZINC000508765459    0.0500
     17 C17        -8.2993    0.8633   61.7118 C.3     1  ZINC000508765459    0.0700
     18 N18        -9.2204    0.4039   62.7608 N.3     1  ZINC000508765459   -0.4600
     19 C19        -8.6590    0.5588   64.0164 C.ar    1  ZINC000508765459    0.4900
     20 N20        -7.3406    0.5275   64.1437 N.ar    1  ZINC000508765459   -0.5500
     21 C21        -6.7720    0.6727   65.3292 C.ar    1  ZINC000508765459    0.1700
     22 C22        -7.5732    0.8592   66.4448 C.ar    1  ZINC000508765459   -0.2600
     23 C23        -8.9486    0.8868   66.2759 C.ar    1  ZINC000508765459    0.1700
     24 N24        -9.4526    0.7402   65.0617 N.ar    1  ZINC000508765459   -0.5300
     25 C25       -10.5090    1.1045   62.6700 C.3     1  ZINC000508765459    0.0700
     26 C26       -11.1328    0.8436   61.2970 C.3     1  ZINC000508765459    0.0600
     27 C27        -9.1816   -1.1552   53.2373 C.3     1  ZINC000508765459    0.1000
     28 C28        -7.8231   -0.6048   52.9000 C.2     1  ZINC000508765459    0.5100
     29 O29        -7.0550   -1.3037   52.2735 O.2     1  ZINC000508765459   -0.5400
     30 H30        -3.7816    1.3147   50.5493 H       1  ZINC000508765459    0.0400
     31 H31        -3.1399    2.8616   51.1524 H       1  ZINC000508765459    0.0900
     32 H32        -3.7492    1.6435   52.2984 H       1  ZINC000508765459    0.0400
     33 H33        -7.2129    2.2413   51.3703 H       1  ZINC000508765459    0.0500
     34 H34        -6.2124    0.9582   50.6488 H       1  ZINC000508765459    0.0600
     35 H35        -5.4351    0.2117   52.7216 H       1  ZINC000508765459    0.1100
     36 H36        -5.6996    1.7882   53.5045 H       1  ZINC000508765459    0.0900
     37 H37        -7.8445    1.4644   55.1233 H       1  ZINC000508765459    0.0700
     38 H38        -8.0595    2.5447   53.7292 H       1  ZINC000508765459    0.1000
     39 H39       -10.2122    1.6954   54.8428 H       1  ZINC000508765459    0.1200
     40 H40       -10.0992    1.4531   53.0799 H       1  ZINC000508765459    0.0800
     41 H41       -10.9860    0.9906   56.0806 H       1  ZINC000508765459    0.4000
     42 H42       -12.7376   -0.0038   57.4448 H       1  ZINC000508765459    0.0700
     43 H43       -11.9744   -1.5869   57.1621 H       1  ZINC000508765459    0.0700
     44 H44       -11.4519   -0.8504   59.4344 H       1  ZINC000508765459    0.0700
     45 H45        -9.9679   -0.7906   58.4534 H       1  ZINC000508765459    0.0800
     46 H46       -10.1639    1.6048   58.1696 H       1  ZINC000508765459    0.0800
     47 H47       -11.7892    1.6125   58.8954 H       1  ZINC000508765459    0.0400
     48 H48        -9.0814   -0.4683   60.2088 H       1  ZINC000508765459    0.0500
     49 H49        -8.2545    0.9686   59.5599 H       1  ZINC000508765459    0.0900
     50 H50        -7.3572    0.3210   61.7922 H       1  ZINC000508765459    0.0900
     51 H51        -8.1160    1.9311   61.8310 H       1  ZINC000508765459    0.0600
     52 H52        -5.6968    0.6461   65.4267 H       1  ZINC000508765459    0.1700
     53 H53        -7.1351    0.9801   67.4246 H       1  ZINC000508765459    0.1500
     54 H54        -9.6008    1.0299   67.1247 H       1  ZINC000508765459    0.1700
     55 H55       -11.1778    0.7383   63.4489 H       1  ZINC000508765459    0.1000
     56 H56       -10.3507    2.1751   62.8000 H       1  ZINC000508765459    0.0500
     57 H57       -12.0749    1.3859   61.2167 H       1  ZINC000508765459    0.0900
     58 H58       -11.3162   -0.2243   61.1779 H       1  ZINC000508765459    0.0500
     59 H59        -9.0804   -2.1624   53.6417 H       1  ZINC000508765459    0.1100
     60 H60        -9.7949   -1.1816   52.3366 H       1  ZINC000508765459    0.1100
@<TRIPOS>BOND
     1     1     2    1
     2     1    30    1
     3     1    31    1
     4     1    32    1
     5     2     3    1
     6     3     4    1
     7     3    33    1
     8     3    34    1
     9     4     5    1
    10     4    35    1
    11     4    36    1
    12     5    28   am
    13     5     6    1
    14     6     7    1
    15     6    37    1
    16     6    38    1
    17     7     8    1
    18     7    39    1
    19     7    40    1
    20     8     9   am
    21     8    27    1
    22     9    10    2
    23     9    11   am
    24    11    12    1
    25    11    41    1
    26    12    13    1
    27    12    42    1
    28    12    43    1
    29    13    14    1
    30    13    44    1
    31    13    45    1
    32    14    15    1
    33    14    46    1
    34    14    47    1
    35    15    26    1
    36    15    16    1
    37    16    17    1
    38    16    48    1
    39    16    49    1
    40    17    18    1
    41    17    50    1
    42    17    51    1
    43    18    19    1
    44    18    25    1
    45    19    24   ar
    46    19    20   ar
    47    20    21   ar
    48    21    22   ar
    49    21    52    1
    50    22    23   ar
    51    22    53    1
    52    23    24   ar
    53    23    54    1
    54    25    26    1
    55    25    55    1
    56    25    56    1
    57    26    57    1
    58    26    58    1
    59    27    28    1
    60    27    59    1
    61    27    60    1
    62    28    29    2
@<TRIPOS>SUBSTRUCTURE
     1 ZINC000508765459        1 TEMP              0 ****  ****    0 ROOT


##########                                Name:    ZINC000552360217
##########                DOCK_Rotatable_Bonds:                  13
##########                         Heavy_Atoms:                  27
##########                    Molecular_Weight:             401.484
##########                DOCK_Rotatable_Bonds:                  13
##########                       Formal_Charge:          -0.0100002
##########                     HBond_Acceptors:                  10
##########                        HBond_Donors:                   3
##########                         Heavy_Atoms:                  27
##########                          Grid_Score:          -35.570839
##########                     Grid_vdw_energy:          -35.209831
##########                      Grid_es_energy:           -0.361006
##########           Internal_energy_repulsive:           21.623745

@<TRIPOS>MOLECULE
ZINC000552360217
 54 54 1 0 0
SMALL
USER_CHARGES


@<TRIPOS>ATOM
      1 C1         -7.1156    1.5208   53.6020 C.3     1  ZINC000552360217    0.0800
      2 N2         -6.3500    1.2959   52.3733 N.am    1  ZINC000552360217   -1.0000
      3 C3         -6.2554   -0.0513   51.8056 C.3     1  ZINC000552360217    0.0900
      4 S4         -5.5917    2.5644   51.6262 S.o2    1  ZINC000552360217    2.7000
      5 O5         -4.8227    2.0063   50.5696 O.2     1  ZINC000552360217   -0.9500
      6 O6         -6.5837    3.5614   51.4229 O.2     1  ZINC000552360217   -0.9500
      7 C7         -4.4404    3.2358   52.7786 C.ar    1  ZINC000552360217   -0.6900
      8 C8         -4.8885    3.7482   53.9830 C.ar    1  ZINC000552360217    0.0100
      9 C9         -3.9908    4.2769   54.8938 C.ar    1  ZINC000552360217   -0.1400
     10 C10        -2.6420    4.2961   54.6058 C.ar    1  ZINC000552360217   -0.0300
     11 C11        -2.1832    3.7806   53.3924 C.ar    1  ZINC000552360217   -0.1600
     12 C12        -0.7388    3.7976   53.0773 C.2     1  ZINC000552360217    0.5600
     13 O13         0.0396    4.3584   53.8237 O.2     1  ZINC000552360217   -0.5300
     14 N14        -0.2852    3.1914   51.9624 N.am    1  ZINC000552360217   -0.7100
     15 C15         1.1463    3.2066   51.6510 C.3     1  ZINC000552360217    0.1000
     16 C16         1.4888    2.0087   50.8032 C.2     1  ZINC000552360217    0.5100
     17 O17         0.6794    1.5751   50.0109 O.2     1  ZINC000552360217   -0.5400
     18 N18         2.6946    1.4190   50.9257 N.am    1  ZINC000552360217   -0.7200
     19 C19         3.0282    0.2555   50.1003 C.3     1  ZINC000552360217    0.1400
     20 C20         4.5138    0.2971   49.7370 C.3     1  ZINC000552360217    0.1000
     21 C21         4.8081    1.5688   48.9389 C.3     1  ZINC000552360217   -0.1800
     22 C22         5.3522    0.2926   51.0168 C.3     1  ZINC000552360217   -0.1800
     23 O23         4.8433   -0.8476   48.9476 O.3     1  ZINC000552360217   -0.3700
     24 C24         4.0732   -0.9692   47.7501 C.3     1  ZINC000552360217    0.0600
     25 C25         4.5369   -2.1997   46.9681 C.3     1  ZINC000552360217    0.0800
     26 O26         4.3117   -3.3741   47.7507 O.3     1  ZINC000552360217   -0.5700
     27 C27        -3.0932    3.2442   52.4804 C.ar    1  ZINC000552360217    0.0400
     28 H28        -6.4608    1.4007   54.4651 H       1  ZINC000552360217    0.0600
     29 H29        -7.5256    2.5308   53.5948 H       1  ZINC000552360217    0.0900
     30 H30        -7.9298    0.7985   53.6602 H       1  ZINC000552360217    0.0800
     31 H31        -6.8136   -0.7488   52.4301 H       1  ZINC000552360217    0.0800
     32 H32        -6.6725   -0.0514   50.7985 H       1  ZINC000552360217    0.0700
     33 H33        -5.2096   -0.3561   51.7657 H       1  ZINC000552360217    0.0600
     34 H34        -5.9436    3.7359   54.2132 H       1  ZINC000552360217    0.1500
     35 H35        -4.3472    4.6757   55.8321 H       1  ZINC000552360217    0.1400
     36 H36        -1.9425    4.7093   55.3174 H       1  ZINC000552360217    0.1400
     37 H37        -0.9064    2.7449   51.3660 H       1  ZINC000552360217    0.4100
     38 H38         1.3899    4.1189   51.1062 H       1  ZINC000552360217    0.1000
     39 H39         1.7200    3.1723   52.5771 H       1  ZINC000552360217    0.1000
     40 H40         3.3414    1.7651   51.5602 H       1  ZINC000552360217    0.4100
     41 H41         2.8155   -0.6575   50.6565 H       1  ZINC000552360217    0.0800
     42 H42         2.4305    0.2732   49.1889 H       1  ZINC000552360217    0.0900
     43 H43         4.5567    2.4420   49.5410 H       1  ZINC000552360217    0.0700
     44 H44         5.8665    1.5985   48.6799 H       1  ZINC000552360217    0.0700
     45 H45         4.2108    1.5721   48.0271 H       1  ZINC000552360217    0.0700
     46 H46         5.1425   -0.6134   51.5853 H       1  ZINC000552360217    0.0600
     47 H47         6.4106    0.3223   50.7578 H       1  ZINC000552360217    0.0700
     48 H48         5.1008    1.1658   51.6188 H       1  ZINC000552360217    0.0700
     49 H49         3.0189   -1.0769   48.0055 H       1  ZINC000552360217    0.0600
     50 H50         4.2095   -0.0774   47.1383 H       1  ZINC000552360217    0.0700
     51 H51         3.9757   -2.2709   46.0364 H       1  ZINC000552360217    0.0600
     52 H52         5.6002   -2.1095   46.7459 H       1  ZINC000552360217    0.0500
     53 H53         3.3822   -3.5304   47.9668 H       1  ZINC000552360217    0.3800
     54 H54        -2.7447    2.8438   51.5399 H       1  ZINC000552360217    0.1500
@<TRIPOS>BOND
     1     1     2    1
     2     1    28    1
     3     1    29    1
     4     1    30    1
     5     2     3    1
     6     2     4   am
     7     3    31    1
     8     3    32    1
     9     3    33    1
    10     4     5    2
    11     4     6    2
    12     4     7    1
    13     7    27   ar
    14     7     8   ar
    15     8     9   ar
    16     8    34    1
    17     9    10   ar
    18     9    35    1
    19    10    11   ar
    20    10    36    1
    21    11    12    1
    22    11    27   ar
    23    12    13    2
    24    12    14   am
    25    14    15    1
    26    14    37    1
    27    15    16    1
    28    15    38    1
    29    15    39    1
    30    16    17    2
    31    16    18   am
    32    18    19    1
    33    18    40    1
    34    19    20    1
    35    19    41    1
    36    19    42    1
    37    20    21    1
    38    20    22    1
    39    20    23    1
    40    21    43    1
    41    21    44    1
    42    21    45    1
    43    22    46    1
    44    22    47    1
    45    22    48    1
    46    23    24    1
    47    24    25    1
    48    24    49    1
    49    24    50    1
    50    25    26    1
    51    25    51    1
    52    25    52    1
    53    26    53    1
    54    27    54    1
@<TRIPOS>SUBSTRUCTURE
     1 ZINC000552360217        1 TEMP              0 ****  ****    0 ROOT


##########                                Name:    ZINC000770814339
##########                DOCK_Rotatable_Bonds:                  13
##########                         Heavy_Atoms:                  28
##########                    Molecular_Weight:             409.423
##########                DOCK_Rotatable_Bonds:                  13
##########                       Formal_Charge:          -0.0100008
##########                     HBond_Acceptors:                  12
##########                        HBond_Donors:                   4
##########                         Heavy_Atoms:                  28
##########                          Grid_Score:          -35.402416
##########                     Grid_vdw_energy:          -34.824875
##########                      Grid_es_energy:           -0.577542
##########           Internal_energy_repulsive:            9.317365

@<TRIPOS>MOLECULE
ZINC000770814339
 47 48 1 0 0
SMALL
USER_CHARGES


@<TRIPOS>ATOM
      1 C1         -7.6928    1.0560   60.9162 C.3     1  ZINC000770814339   -0.1500
      2 C2         -8.0123    0.2997   59.6251 C.3     1  ZINC000770814339    0.0600
      3 O3         -8.1377    1.2442   58.5294 O.3     1  ZINC000770814339   -0.3500
      4 C4         -6.9995    1.6806   57.9677 C.2     1  ZINC000770814339    0.4700
      5 O5         -5.9439    1.1779   58.2725 O.2     1  ZINC000770814339   -0.4800
      6 C6         -7.0380    2.7977   56.9569 C.3     1  ZINC000770814339    0.0700
      7 O7         -7.0761    2.2465   55.6390 O.3     1  ZINC000770814339   -0.1800
      8 N8         -8.1918    1.4090   55.3970 N.2     1  ZINC000770814339   -0.2800
      9 C9         -8.3647    0.8780   54.2196 C.2     1  ZINC000770814339    0.1800
     10 C10        -7.3944    1.1522   53.1334 C.2     1  ZINC000770814339    0.5900
     11 O11        -6.5672    0.3149   52.8320 O.2     1  ZINC000770814339   -0.5100
     12 N12        -7.4297    2.3304   52.4799 N.am    1  ZINC000770814339   -0.7000
     13 C13        -6.4717    2.6008   51.4051 C.3     1  ZINC000770814339    0.1500
     14 C14        -5.1420    2.9842   52.0019 C.ar    1  ZINC000770814339   -0.0600
     15 C15        -5.0769    3.9690   52.9697 C.ar    1  ZINC000770814339   -0.1200
     16 C16        -3.8572    4.3206   53.5171 C.ar    1  ZINC000770814339   -0.0200
     17 C17        -2.7027    3.6869   53.0971 C.ar    1  ZINC000770814339   -0.6700
     18 S18        -1.1480    4.1355   53.7944 S.o2    1  ZINC000770814339    2.7000
     19 N19        -0.8637    3.1070   55.0608 N.am    1  ZINC000770814339   -1.2500
     20 O20        -0.1666    3.8406   52.8100 O.2     1  ZINC000770814339   -0.9600
     21 O21        -1.3192    5.4286   54.3583 O.2     1  ZINC000770814339   -0.9600
     22 C22        -2.7679    2.7011   52.1302 C.ar    1  ZINC000770814339   -0.0200
     23 C23        -3.9881    2.3469   51.5856 C.ar    1  ZINC000770814339   -0.1200
     24 C24        -9.5272    0.0034   53.9676 C.2     1  ZINC000770814339    0.0600
     25 C25       -10.6806   -0.0625   54.7194 C.2     1  ZINC000770814339   -0.2000
     26 C26       -11.5144   -1.0134   54.1330 C.2     1  ZINC000770814339    0.0400
     27 N27       -10.9128   -1.5070   53.0803 N.2     1  ZINC000770814339   -0.2600
     28 N28        -9.6644   -0.8875   52.9432 N.pl3   1  ZINC000770814339   -0.4400
     29 H29        -7.5987    0.3470   61.7388 H       1  ZINC000770814339    0.0800
     30 H30        -6.7560    1.6000   60.7963 H       1  ZINC000770814339    0.0700
     31 H31        -8.4964    1.7598   61.1333 H       1  ZINC000770814339    0.0700
     32 H32        -7.2087   -0.4040   59.4079 H       1  ZINC000770814339    0.0700
     33 H33        -8.9492   -0.2442   59.7450 H       1  ZINC000770814339    0.0700
     34 H34        -7.9269    3.4065   57.1219 H       1  ZINC000770814339    0.1100
     35 H35        -6.1479    3.4173   57.0659 H       1  ZINC000770814339    0.1100
     36 H36        -8.0893    2.9994   52.7214 H       1  ZINC000770814339    0.4100
     37 H37        -6.3510    1.7073   50.7927 H       1  ZINC000770814339    0.0900
     38 H38        -6.8413    3.4184   50.7861 H       1  ZINC000770814339    0.0900
     39 H39        -5.9789    4.4641   53.2979 H       1  ZINC000770814339    0.1400
     40 H40        -3.8063    5.0906   54.2727 H       1  ZINC000770814339    0.1500
     41 H41        -0.0492    3.1914   55.5807 H       1  ZINC000770814339    0.4200
     42 H42        -1.5118    2.4203   55.2827 H       1  ZINC000770814339    0.4200
     43 H43        -1.8660    2.2058   51.8023 H       1  ZINC000770814339    0.1500
     44 H44        -4.0391    1.5767   50.8302 H       1  ZINC000770814339    0.1400
     45 H45       -10.8989    0.5178   55.6038 H       1  ZINC000770814339    0.1700
     46 H46       -12.4942   -1.2962   54.4885 H       1  ZINC000770814339    0.1900
     47 H47        -9.0116   -1.0643   52.2479 H       1  ZINC000770814339    0.4500
@<TRIPOS>BOND
     1     1     2    1
     2     1    29    1
     3     1    30    1
     4     1    31    1
     5     2     3    1
     6     2    32    1
     7     2    33    1
     8     3     4    1
     9     4     5    2
    10     4     6    1
    11     6     7    1
    12     6    34    1
    13     6    35    1
    14     7     8    1
    15     8     9    2
    16     9    10    1
    17     9    24    1
    18    10    11    2
    19    10    12   am
    20    12    13    1
    21    12    36    1
    22    13    14    1
    23    13    37    1
    24    13    38    1
    25    14    23   ar
    26    14    15   ar
    27    15    16   ar
    28    15    39    1
    29    16    17   ar
    30    16    40    1
    31    17    18    1
    32    17    22   ar
    33    18    19   am
    34    18    20    2
    35    18    21    2
    36    19    41    1
    37    19    42    1
    38    22    23   ar
    39    22    43    1
    40    23    44    1
    41    24    28    1
    42    24    25    2
    43    25    26    1
    44    25    45    1
    45    26    27    2
    46    26    46    1
    47    27    28    1
    48    28    47    1
@<TRIPOS>SUBSTRUCTURE
     1 ZINC000770814339        1 TEMP              0 ****  ****    0 ROOT


##########                                Name:    ZINC000489986384
##########                DOCK_Rotatable_Bonds:                  11
##########                         Heavy_Atoms:                  31
##########                    Molecular_Weight:             415.492
##########                DOCK_Rotatable_Bonds:                  11
##########                       Formal_Charge:          -0.0499997
##########                     HBond_Acceptors:                   6
##########                        HBond_Donors:                   2
##########                         Heavy_Atoms:                  31
##########                          Grid_Score:          -35.382484
##########                     Grid_vdw_energy:          -35.478199
##########                      Grid_es_energy:            0.095714
##########           Internal_energy_repulsive:           13.195123

@<TRIPOS>MOLECULE
ZINC000489986384
 56 59 1 0 0
SMALL
USER_CHARGES


@<TRIPOS>ATOM
      1 O1         -5.8136    2.4883   57.2129 O.2     1  ZINC000489986384   -0.5000
      2 C2         -7.0047    2.5612   56.9964 C.2     1  ZINC000489986384    0.4900
      3 C3         -7.5008    3.1691   55.7097 C.3     1  ZINC000489986384    0.0900
      4 N4         -7.1899    2.2720   54.5940 N.pl3   1  ZINC000489986384   -0.4700
      5 C5         -6.1343    2.3972   53.7131 C.ar    1  ZINC000489986384    0.0700
      6 C6         -5.0976    3.3089   53.5699 C.ar    1  ZINC000489986384   -0.1100
      7 C7         -4.1799    3.1455   52.5537 C.ar    1  ZINC000489986384   -0.0900
      8 C8         -4.2868    2.0774   51.6748 C.ar    1  ZINC000489986384   -0.1300
      9 C9         -5.3010    1.1705   51.8001 C.ar    1  ZINC000489986384   -0.0600
     10 C10        -6.2419    1.3152   52.8226 C.ar    1  ZINC000489986384    0.0500
     11 N11        -7.3342    0.6014   53.1981 N.2     1  ZINC000489986384   -0.4600
     12 C12        -7.8842    1.1577   54.2376 C.2     1  ZINC000489986384    0.2800
     13 C13        -9.1177    0.6485   54.9380 C.3     1  ZINC000489986384    0.1400
     14 O14        -9.2313   -0.7618   54.7375 O.3     1  ZINC000489986384   -0.3000
     15 C15       -10.1149   -1.4279   55.5265 C.ar    1  ZINC000489986384    0.1300
     16 C16       -11.3404   -0.8553   55.8342 C.ar    1  ZINC000489986384   -0.2100
     17 C17       -12.2371   -1.5347   56.6360 C.ar    1  ZINC000489986384   -0.0800
     18 C18       -11.9137   -2.7841   57.1321 C.ar    1  ZINC000489986384   -0.1600
     19 C19       -10.6927   -3.3567   56.8273 C.ar    1  ZINC000489986384   -0.0800
     20 C20        -9.7951   -2.6840   56.0208 C.ar    1  ZINC000489986384   -0.1500
     21 N21        -7.8845    2.0934   57.9039 N.am    1  ZINC000489986384   -0.7300
     22 C22        -7.4022    1.5025   59.1546 C.3     1  ZINC000489986384    0.1300
     23 C23        -8.5669    0.8283   59.8825 C.3     1  ZINC000489986384   -0.0600
     24 H24        -9.4741    1.4153   59.7385 H       1  ZINC000489986384    0.0900
     25 C25        -8.7750   -0.5785   59.3186 C.3     1  ZINC000489986384    0.0800
     26 O26        -7.5283   -1.2771   59.3089 O.3     1  ZINC000489986384   -0.5700
     27 C27        -8.2551    0.7386   61.3542 C.ar    1  ZINC000489986384   -0.0700
     28 C28        -9.2625    0.9065   62.2856 C.ar    1  ZINC000489986384   -0.1100
     29 C29        -8.9765    0.8242   63.6356 C.ar    1  ZINC000489986384   -0.1200
     30 C30        -7.6830    0.5736   64.0540 C.ar    1  ZINC000489986384   -0.1200
     31 C31        -6.6757    0.4048   63.1225 C.ar    1  ZINC000489986384   -0.1200
     32 C32        -6.9625    0.4828   61.7725 C.ar    1  ZINC000489986384   -0.1100
     33 H33        -8.5795    3.3149   55.7689 H       1  ZINC000489986384    0.1200
     34 H34        -7.0125    4.1303   55.5499 H       1  ZINC000489986384    0.1200
     35 H35        -5.0102    4.1424   54.2510 H       1  ZINC000489986384    0.1200
     36 H36        -3.3727    3.8541   52.4411 H       1  ZINC000489986384    0.1300
     37 H37        -3.5612    1.9620   50.8832 H       1  ZINC000489986384    0.1300
     38 H38        -5.3752    0.3432   51.1099 H       1  ZINC000489986384    0.1300
     39 H39        -9.0428    0.8591   56.0048 H       1  ZINC000489986384    0.0800
     40 H40        -9.9981    1.1454   54.5305 H       1  ZINC000489986384    0.1000
     41 H41       -11.5932    0.1209   55.4475 H       1  ZINC000489986384    0.1300
     42 H42       -13.1913   -1.0894   56.8759 H       1  ZINC000489986384    0.1300
     43 H43       -12.6159   -3.3135   57.7590 H       1  ZINC000489986384    0.1200
     44 H44       -10.4423   -4.3327   57.2162 H       1  ZINC000489986384    0.1300
     45 H45        -8.8415   -3.1318   55.7830 H       1  ZINC000489986384    0.1300
     46 H46        -8.8371    2.1482   57.7289 H       1  ZINC000489986384    0.4000
     47 H47        -6.6340    0.7615   58.9339 H       1  ZINC000489986384    0.0800
     48 H48        -6.9819    2.2841   59.7875 H       1  ZINC000489986384    0.0800
     49 H49        -9.4887   -1.1178   59.9413 H       1  ZINC000489986384    0.0500
     50 H50        -9.1603   -0.5090   58.3014 H       1  ZINC000489986384    0.0500
     51 H51        -7.1396   -1.4000   60.1858 H       1  ZINC000489986384    0.3800
     52 H52       -10.2730    1.1023   61.9587 H       1  ZINC000489986384    0.1200
     53 H53        -9.7635    0.9561   64.3633 H       1  ZINC000489986384    0.1200
     54 H54        -7.4595    0.5100   65.1087 H       1  ZINC000489986384    0.1200
     55 H55        -5.6651    0.2092   63.4495 H       1  ZINC000489986384    0.1200
     56 H56        -6.1756    0.3509   61.0447 H       1  ZINC000489986384    0.1200
@<TRIPOS>BOND
     1     1     2    2
     2     2     3    1
     3     2    21   am
     4     3     4    1
     5     3    33    1
     6     3    34    1
     7     4    12    1
     8     4     5    1
     9     5    10   ar
    10     5     6   ar
    11     6     7   ar
    12     6    35    1
    13     7     8   ar
    14     7    36    1
    15     8     9   ar
    16     8    37    1
    17     9    10   ar
    18     9    38    1
    19    10    11    1
    20    11    12    2
    21    12    13    1
    22    13    14    1
    23    13    39    1
    24    13    40    1
    25    14    15    1
    26    15    20   ar
    27    15    16   ar
    28    16    17   ar
    29    16    41    1
    30    17    18   ar
    31    17    42    1
    32    18    19   ar
    33    18    43    1
    34    19    20   ar
    35    19    44    1
    36    20    45    1
    37    21    22    1
    38    21    46    1
    39    22    23    1
    40    22    47    1
    41    22    48    1
    42    23    24    1
    43    23    25    1
    44    23    27    1
    45    25    26    1
    46    25    49    1
    47    25    50    1
    48    26    51    1
    49    27    32   ar
    50    27    28   ar
    51    28    29   ar
    52    28    52    1
    53    29    30   ar
    54    29    53    1
    55    30    31   ar
    56    30    54    1
    57    31    32   ar
    58    31    55    1
    59    32    56    1
@<TRIPOS>SUBSTRUCTURE
     1 ZINC000489986384        1 TEMP              0 ****  ****    0 ROOT


##########                                Name:    ZINC000654382142
##########                DOCK_Rotatable_Bonds:                  14
##########                         Heavy_Atoms:                  24
##########                    Molecular_Weight:             379.401
##########                DOCK_Rotatable_Bonds:                  14
##########                       Formal_Charge:          0.00999933
##########                     HBond_Acceptors:                  12
##########                        HBond_Donors:                   2
##########                         Heavy_Atoms:                  24
##########                          Grid_Score:          -35.332973
##########                     Grid_vdw_energy:          -32.361919
##########                      Grid_es_energy:           -2.971056
##########           Internal_energy_repulsive:           18.077204

@<TRIPOS>MOLECULE
ZINC000654382142
 48 47 1 0 0
SMALL
USER_CHARGES


@<TRIPOS>ATOM
      1 C1        -10.0046   -2.9241   57.2126 C.3     1  ZINC000654382142    0.0300
      2 O2         -9.7467   -1.7855   58.0367 O.3     1  ZINC000654382142   -0.3700
      3 C3         -9.8029   -0.5391   57.3400 C.3     1  ZINC000654382142    0.0400
      4 C4         -9.4788    0.6009   58.3075 C.3     1  ZINC000654382142    0.1400
      5 N5         -8.0720    0.5167   58.7078 N.am    1  ZINC000654382142   -0.6100
      6 C6         -7.6959   -0.2332   59.9088 C.3     1  ZINC000654382142    0.0800
      7 C7         -7.3551    0.7449   61.0349 C.3     1  ZINC000654382142    0.0500
      8 H8         -6.6248    1.4706   60.6772 H       1  ZINC000654382142    0.1400
      9 O9         -6.8087    0.0250   62.1419 O.3     1  ZINC000654382142   -0.5200
     10 C10        -8.6247    1.4749   61.4780 C.3     1  ZINC000654382142    0.4200
     11 F11        -8.9702    2.4335   60.5194 F       1  ZINC000654382142   -0.1800
     12 F12        -9.6689    0.5537   61.6138 F       1  ZINC000654382142   -0.1700
     13 F13        -8.3959    2.1048   62.7060 F       1  ZINC000654382142   -0.1800
     14 C14        -7.1240    1.1291   57.9714 C.2     1  ZINC000654382142    0.7100
     15 O15        -5.9563    1.0579   58.3028 O.2     1  ZINC000654382142   -0.5600
     16 N16        -7.4701    1.8204   56.8674 N.am    1  ZINC000654382142   -0.7500
     17 C17        -6.4396    2.4876   56.0678 C.3     1  ZINC000654382142    0.1400
     18 C18        -6.8974    2.5674   54.6101 C.3     1  ZINC000654382142   -0.1600
     19 C19        -5.7533    3.0992   53.7447 C.3     1  ZINC000654382142    0.1200
     20 N20        -6.0348    2.8160   52.3351 N.am    1  ZINC000654382142   -1.0000
     21 C21        -7.0623    3.5817   51.6251 C.3     1  ZINC000654382142    0.0900
     22 S22        -5.1914    1.6304   51.5444 S.o2    1  ZINC000654382142    2.6100
     23 C23        -3.4599    2.1613   51.6473 C.3     1  ZINC000654382142   -0.6800
     24 O24        -5.4034    0.4658   52.3305 O.2     1  ZINC000654382142   -0.9500
     25 O25        -5.6566    1.7041   50.2037 O.2     1  ZINC000654382142   -0.9500
     26 H26        -9.9434   -3.8303   57.8153 H       1  ZINC000654382142    0.0900
     27 H27       -11.0021   -2.8417   56.7808 H       1  ZINC000654382142    0.0400
     28 H28        -9.2652   -2.9689   56.4129 H       1  ZINC000654382142    0.0400
     29 H29        -9.0763   -0.5438   56.5276 H       1  ZINC000654382142    0.0500
     30 H30       -10.8034   -0.3959   56.9318 H       1  ZINC000654382142    0.0600
     31 H31        -9.6601    1.5570   57.8162 H       1  ZINC000654382142    0.0900
     32 H32       -10.1132    0.5199   59.1901 H       1  ZINC000654382142    0.1000
     33 H33        -8.5278   -0.8666   60.2170 H       1  ZINC000654382142    0.1000
     34 H34        -6.8270   -0.8546   59.6919 H       1  ZINC000654382142    0.1000
     35 H35        -5.9555   -0.3913   61.9578 H       1  ZINC000654382142    0.3900
     36 H36        -8.4015    1.8761   56.6023 H       1  ZINC000654382142    0.3900
     37 H37        -6.2759    3.4941   56.4529 H       1  ZINC000654382142    0.0700
     38 H38        -5.5105    1.9205   56.1264 H       1  ZINC000654382142    0.0700
     39 H39        -7.1832    1.5741   54.2641 H       1  ZINC000654382142    0.0700
     40 H40        -7.7527    3.2387   54.5341 H       1  ZINC000654382142    0.0800
     41 H41        -5.6599    4.1759   53.8873 H       1  ZINC000654382142    0.0900
     42 H42        -4.8220    2.6123   54.0342 H       1  ZINC000654382142    0.1000
     43 H43        -6.6093    4.4619   51.1690 H       1  ZINC000654382142    0.0600
     44 H44        -7.5082    2.9592   50.8494 H       1  ZINC000654382142    0.0700
     45 H45        -7.8341    3.8937   52.3289 H       1  ZINC000654382142    0.0700
     46 H46        -3.1658    2.2408   52.6939 H       1  ZINC000654382142    0.1300
     47 H47        -2.8252    1.4304   51.1462 H       1  ZINC000654382142    0.1300
     48 H48        -3.3480    3.1318   51.1638 H       1  ZINC000654382142    0.1300
@<TRIPOS>BOND
     1     1     2    1
     2     1    26    1
     3     1    27    1
     4     1    28    1
     5     2     3    1
     6     3     4    1
     7     3    29    1
     8     3    30    1
     9     4     5    1
    10     4    31    1
    11     4    32    1
    12     5     6    1
    13     5    14   am
    14     6     7    1
    15     6    33    1
    16     6    34    1
    17     7     8    1
    18     7     9    1
    19     7    10    1
    20     9    35    1
    21    10    11    1
    22    10    12    1
    23    10    13    1
    24    14    15    2
    25    14    16   am
    26    16    17    1
    27    16    36    1
    28    17    18    1
    29    17    37    1
    30    17    38    1
    31    18    19    1
    32    18    39    1
    33    18    40    1
    34    19    20    1
    35    19    41    1
    36    19    42    1
    37    20    21    1
    38    20    22   am
    39    21    43    1
    40    21    44    1
    41    21    45    1
    42    22    23    1
    43    22    24    2
    44    22    25    2
    45    23    46    1
    46    23    47    1
    47    23    48    1
@<TRIPOS>SUBSTRUCTURE
     1 ZINC000654382142        1 TEMP              0 ****  ****    0 ROOT


##########                                Name:    ZINC000465642058
##########                DOCK_Rotatable_Bonds:                  10
##########                         Heavy_Atoms:                  31
##########                    Molecular_Weight:             420.511
##########                DOCK_Rotatable_Bonds:                  10
##########                       Formal_Charge:          1.2666e-07
##########                     HBond_Acceptors:                   7
##########                        HBond_Donors:                   2
##########                         Heavy_Atoms:                  31
##########                          Grid_Score:          -34.880207
##########                     Grid_vdw_energy:          -34.606121
##########                      Grid_es_energy:           -0.274087
##########           Internal_energy_repulsive:           12.319856

@<TRIPOS>MOLECULE
ZINC000465642058
 59 62 1 0 0
SMALL
USER_CHARGES


@<TRIPOS>ATOM
      1 C1        -12.7595    1.8299   52.9318 C.3     1  ZINC000465642058   -0.1500
      2 C2        -11.3514    2.4280   52.9072 C.3     1  ZINC000465642058    0.0500
      3 O3        -10.5133    1.7106   53.8154 O.3     1  ZINC000465642058   -0.3000
      4 C4         -9.2890    1.3336   53.3591 C.ar    1  ZINC000465642058    0.1200
      5 C5         -8.3897    2.2879   52.9048 C.ar    1  ZINC000465642058   -0.1600
      6 C6         -7.1505    1.9007   52.4449 C.ar    1  ZINC000465642058   -0.1300
      7 C7         -6.7815    0.5621   52.4343 C.ar    1  ZINC000465642058    0.0700
      8 C8         -7.6899   -0.3915   52.8870 C.ar    1  ZINC000465642058   -0.0700
      9 C9         -8.9303   -0.0064   53.3507 C.ar    1  ZINC000465642058   -0.1100
     10 C10        -9.9049   -1.0470   53.8387 C.3     1  ZINC000465642058    0.1900
     11 N11       -10.2640   -0.7650   55.2307 N.am    1  ZINC000465642058   -0.7300
     12 C12       -10.6345   -1.7705   56.0481 C.2     1  ZINC000465642058    0.7100
     13 O13       -10.6720   -2.9116   55.6297 O.2     1  ZINC000465642058   -0.5900
     14 N14       -10.9633   -1.5113   57.3291 N.am    1  ZINC000465642058   -0.6200
     15 C15       -11.3678   -2.6041   58.2170 C.3     1  ZINC000465642058    0.1900
     16 C16       -12.8592   -2.8000   58.1254 C.2     1  ZINC000465642058    0.0500
     17 N17       -13.4733   -3.6724   57.3680 N.2     1  ZINC000465642058   -0.2700
     18 N18       -14.8524   -3.5358   57.5727 N.pl3   1  ZINC000465642058   -0.4700
     19 C19       -15.0425   -2.5529   58.4775 C.2     1  ZINC000465642058    0.0600
     20 C20       -13.8258   -2.0846   58.8398 C.2     1  ZINC000465642058   -0.2600
     21 C21       -10.9164   -0.1367   57.8338 C.3     1  ZINC000465642058    0.1700
     22 C22        -9.5417    0.1513   58.3798 C.ar    1  ZINC000465642058   -0.1100
     23 C23        -8.5958    0.7666   57.5814 C.ar    1  ZINC000465642058   -0.0900
     24 C24        -7.3348    1.0307   58.0823 C.ar    1  ZINC000465642058   -0.1200
     25 C25        -7.0198    0.6799   59.3818 C.ar    1  ZINC000465642058   -0.1200
     26 C26        -7.9660    0.0655   60.1805 C.ar    1  ZINC000465642058   -0.1300
     27 C27        -9.2283   -0.1948   59.6810 C.ar    1  ZINC000465642058   -0.1100
     28 O28        -5.5127    0.4044   51.9637 O.3     1  ZINC000465642058   -0.3000
     29 C29        -5.1332    1.5774   51.2240 C.3     1  ZINC000465642058    0.0800
     30 H30        -5.3919    1.4701   50.1706 H       1  ZINC000465642058    0.0900
     31 C31        -3.6385    1.8608   51.3868 C.3     1  ZINC000465642058   -0.1500
     32 C32        -5.9813    2.6887   51.8862 C.3     1  ZINC000465642058   -0.1100
     33 H33       -13.1683    1.9042   53.9395 H       1  ZINC000465642058    0.0700
     34 H34       -13.3988    2.3770   52.2390 H       1  ZINC000465642058    0.0800
     35 H35       -12.7144    0.7822   52.6343 H       1  ZINC000465642058    0.0700
     36 H36       -10.9426    2.3536   51.8996 H       1  ZINC000465642058    0.0600
     37 H37       -11.3965    3.4757   53.2047 H       1  ZINC000465642058    0.0600
     38 H38        -8.6614    3.3332   52.9115 H       1  ZINC000465642058    0.1300
     39 H39        -7.4201   -1.4372   52.8789 H       1  ZINC000465642058    0.1400
     40 H40       -10.8020   -1.0231   53.2200 H       1  ZINC000465642058    0.0700
     41 H41        -9.4455   -2.0333   53.7747 H       1  ZINC000465642058    0.0800
     42 H42       -10.2352    0.1455   55.5642 H       1  ZINC000465642058    0.4000
     43 H43       -10.8618   -3.5218   57.9175 H       1  ZINC000465642058    0.1000
     44 H44       -11.0961   -2.3578   59.2435 H       1  ZINC000465642058    0.0900
     45 H45       -15.5476   -4.0559   57.1404 H       1  ZINC000465642058    0.4400
     46 H46       -15.9952   -2.2052   58.8492 H       1  ZINC000465642058    0.1800
     47 H47       -13.6350   -1.2939   59.5503 H       1  ZINC000465642058    0.1500
     48 H48       -11.1374    0.5562   57.0218 H       1  ZINC000465642058    0.0900
     49 H49       -11.6550   -0.0152   58.6262 H       1  ZINC000465642058    0.0900
     50 H50        -8.8419    1.0407   56.5661 H       1  ZINC000465642058    0.1300
     51 H51        -6.5955    1.5108   57.4582 H       1  ZINC000465642058    0.1200
     52 H52        -6.0344    0.8857   59.7729 H       1  ZINC000465642058    0.1200
     53 H53        -7.7199   -0.2089   61.1957 H       1  ZINC000465642058    0.1200
     54 H54        -9.9676   -0.6748   60.3050 H       1  ZINC000465642058    0.1200
     55 H55        -3.0646    1.0219   50.9933 H       1  ZINC000465642058    0.0700
     56 H56        -3.3790    2.7672   50.8397 H       1  ZINC000465642058    0.0800
     57 H57        -3.4073    1.9955   52.4435 H       1  ZINC000465642058    0.0700
     58 H58        -6.3188    3.4144   51.1462 H       1  ZINC000465642058    0.0900
     59 H59        -5.4251    3.1793   52.6850 H       1  ZINC000465642058    0.1000
@<TRIPOS>BOND
     1     1     2    1
     2     1    33    1
     3     1    34    1
     4     1    35    1
     5     2     3    1
     6     2    36    1
     7     2    37    1
     8     3     4    1
     9     4     9   ar
    10     4     5   ar
    11     5     6   ar
    12     5    38    1
    13     6    32    1
    14     6     7   ar
    15     7     8   ar
    16     7    28    1
    17     8     9   ar
    18     8    39    1
    19     9    10    1
    20    10    11    1
    21    10    40    1
    22    10    41    1
    23    11    12   am
    24    11    42    1
    25    12    13    2
    26    12    14   am
    27    14    15    1
    28    14    21    1
    29    15    16    1
    30    15    43    1
    31    15    44    1
    32    16    20    1
    33    16    17    2
    34    17    18    1
    35    18    19    1
    36    18    45    1
    37    19    20    2
    38    19    46    1
    39    20    47    1
    40    21    22    1
    41    21    48    1
    42    21    49    1
    43    22    27   ar
    44    22    23   ar
    45    23    24   ar
    46    23    50    1
    47    24    25   ar
    48    24    51    1
    49    25    26   ar
    50    25    52    1
    51    26    27   ar
    52    26    53    1
    53    27    54    1
    54    28    29    1
    55    29    30    1
    56    29    31    1
    57    29    32    1
    58    31    55    1
    59    31    56    1
    60    31    57    1
    61    32    58    1
    62    32    59    1
@<TRIPOS>SUBSTRUCTURE
     1 ZINC000465642058        1 TEMP              0 ****  ****    0 ROOT


##########                                Name:    ZINC001347442583
##########                DOCK_Rotatable_Bonds:                   9
##########                         Heavy_Atoms:                  27
##########                    Molecular_Weight:             370.492
##########                DOCK_Rotatable_Bonds:                   9
##########                       Formal_Charge:          -0.0400009
##########                     HBond_Acceptors:                   5
##########                        HBond_Donors:                   1
##########                         Heavy_Atoms:                  27
##########                          Grid_Score:          -34.820354
##########                     Grid_vdw_energy:          -33.303551
##########                      Grid_es_energy:           -1.516802
##########           Internal_energy_repulsive:           14.809421

@<TRIPOS>MOLECULE
ZINC001347442583
 57 60 1 0 0
SMALL
USER_CHARGES


@<TRIPOS>ATOM
      1 O1         -5.8875    1.2028   58.6924 O.2     1  ZINC001347442583   -0.5400
      2 C2         -6.5172    2.0264   59.3219 C.2     1  ZINC001347442583    0.5400
      3 C3         -6.4305    3.4848   58.9521 C.3     1  ZINC001347442583   -0.1400
      4 C4         -5.3287    3.6818   57.9089 C.3     1  ZINC001347442583   -0.1000
      5 C5         -5.8798    3.3605   56.5182 C.3     1  ZINC001347442583   -0.1100
      6 C6         -4.9366    3.9239   55.4533 C.3     1  ZINC001347442583   -0.0800
      7 C7         -5.2703    3.3168   54.1149 C.ar    1  ZINC001347442583   -0.0800
      8 C8         -4.2926    3.2035   53.1442 C.ar    1  ZINC001347442583   -0.1200
      9 C9         -4.5988    2.6466   51.9166 C.ar    1  ZINC001347442583   -0.1200
     10 C10        -5.8825    2.2026   51.6598 C.ar    1  ZINC001347442583   -0.1300
     11 C11        -6.8599    2.3148   52.6309 C.ar    1  ZINC001347442583   -0.1200
     12 C12        -6.5526    2.8678   53.8601 C.ar    1  ZINC001347442583   -0.1200
     13 N13        -7.2988    1.6369   60.3484 N.am    1  ZINC001347442583   -0.6300
     14 C14        -8.1731    2.4334   61.2748 C.3     1  ZINC001347442583    0.1200
     15 H15        -8.1868    3.5102   61.1070 H       1  ZINC001347442583    0.1200
     16 C16        -7.6323    1.9759   62.6630 C.3     1  ZINC001347442583   -0.1300
     17 C17        -7.2172    0.5039   62.4204 C.3     1  ZINC001347442583   -0.1300
     18 C18        -7.5688    0.2717   60.9146 C.3     1  ZINC001347442583    0.1200
     19 H19        -7.0468   -0.5544   60.4317 H       1  ZINC001347442583    0.1200
     20 C20        -9.1250    0.2028   60.8680 C.3     1  ZINC001347442583    0.1300
     21 H21        -9.5044   -0.4485   61.6553 H       1  ZINC001347442583    0.1100
     22 N22        -9.5822   -0.2578   59.5545 N.am    1  ZINC001347442583   -0.7200
     23 C23       -10.4990   -1.2417   59.4670 C.2     1  ZINC001347442583    0.5300
     24 O24       -10.9467   -1.7449   60.4756 O.2     1  ZINC001347442583   -0.5300
     25 C25       -10.9679   -1.7167   58.1158 C.3     1  ZINC001347442583   -0.1500
     26 H26       -11.8242   -1.1336   57.7773 H       1  ZINC001347442583    0.1100
     27 C27        -9.8139   -1.6574   57.0781 C.3     1  ZINC001347442583   -0.1400
     28 C28       -10.2399   -2.7810   56.0999 C.3     1  ZINC001347442583    0.0500
     29 O29       -10.8199   -3.8003   56.9293 O.3     1  ZINC001347442583   -0.3800
     30 C30       -11.3073   -3.2223   58.1500 C.3     1  ZINC001347442583    0.0700
     31 C31        -9.5400    1.7072   61.0934 C.3     1  ZINC001347442583   -0.1400
     32 H32        -7.3846    3.8123   58.5391 H       1  ZINC001347442583    0.0900
     33 H33        -6.1986    4.0718   59.8407 H       1  ZINC001347442583    0.0900
     34 H34        -4.9856    4.7161   57.9338 H       1  ZINC001347442583    0.0700
     35 H35        -4.4943    3.0169   58.1317 H       1  ZINC001347442583    0.0700
     36 H36        -5.9582    2.2799   56.3992 H       1  ZINC001347442583    0.0600
     37 H37        -6.8659    3.8111   56.4051 H       1  ZINC001347442583    0.0600
     38 H38        -5.0533    5.0063   55.4005 H       1  ZINC001347442583    0.0700
     39 H39        -3.9067    3.6816   55.7153 H       1  ZINC001347442583    0.0700
     40 H40        -3.2898    3.5505   53.3447 H       1  ZINC001347442583    0.1200
     41 H41        -3.8352    2.5589   51.1579 H       1  ZINC001347442583    0.1200
     42 H42        -6.1218    1.7681   50.7005 H       1  ZINC001347442583    0.1200
     43 H43        -7.8629    1.9682   52.4303 H       1  ZINC001347442583    0.1200
     44 H44        -7.3163    2.9556   54.6188 H       1  ZINC001347442583    0.1200
     45 H45        -6.7699    2.5749   62.9555 H       1  ZINC001347442583    0.0700
     46 H46        -8.4158    2.0344   63.4186 H       1  ZINC001347442583    0.0800
     47 H47        -6.1489    0.3728   62.5927 H       1  ZINC001347442583    0.0800
     48 H48        -7.7948   -0.1676   63.0556 H       1  ZINC001347442583    0.0800
     49 H49        -9.2249    0.1455   58.7478 H       1  ZINC001347442583    0.4000
     50 H50        -9.7856   -0.6899   56.5768 H       1  ZINC001347442583    0.0900
     51 H51        -8.8548   -1.8847   57.5436 H       1  ZINC001347442583    0.0900
     52 H52       -10.9774   -2.4054   55.3905 H       1  ZINC001347442583    0.0700
     53 H53        -9.3707   -3.1723   55.5714 H       1  ZINC001347442583    0.0900
     54 H54       -10.8155   -3.6903   59.0028 H       1  ZINC001347442583    0.0700
     55 H55       -12.3858   -3.3627   58.2207 H       1  ZINC001347442583    0.0800
     56 H56       -10.1308    1.8102   62.0036 H       1  ZINC001347442583    0.0900
     57 H57       -10.0900    2.0869   60.2323 H       1  ZINC001347442583    0.0800
@<TRIPOS>BOND
     1     1     2    2
     2     2     3    1
     3     2    13   am
     4     3     4    1
     5     3    32    1
     6     3    33    1
     7     4     5    1
     8     4    34    1
     9     4    35    1
    10     5     6    1
    11     5    36    1
    12     5    37    1
    13     6     7    1
    14     6    38    1
    15     6    39    1
    16     7    12   ar
    17     7     8   ar
    18     8     9   ar
    19     8    40    1
    20     9    10   ar
    21     9    41    1
    22    10    11   ar
    23    10    42    1
    24    11    12   ar
    25    11    43    1
    26    12    44    1
    27    13    18    1
    28    13    14    1
    29    14    15    1
    30    14    31    1
    31    14    16    1
    32    16    17    1
    33    16    45    1
    34    16    46    1
    35    17    18    1
    36    17    47    1
    37    17    48    1
    38    18    19    1
    39    18    20    1
    40    20    21    1
    41    20    22    1
    42    20    31    1
    43    22    23   am
    44    22    49    1
    45    23    24    2
    46    23    25    1
    47    25    26    1
    48    25    30    1
    49    25    27    1
    50    27    28    1
    51    27    50    1
    52    27    51    1
    53    28    29    1
    54    28    52    1
    55    28    53    1
    56    29    30    1
    57    30    54    1
    58    30    55    1
    59    31    56    1
    60    31    57    1
@<TRIPOS>SUBSTRUCTURE
     1 ZINC001347442583        1 TEMP              0 ****  ****    0 ROOT


##########                                Name:    ZINC000770850676
##########                DOCK_Rotatable_Bonds:                  13
##########                         Heavy_Atoms:                  30
##########                    Molecular_Weight:             412.486
##########                DOCK_Rotatable_Bonds:                  13
##########                       Formal_Charge:          -0.0299994
##########                     HBond_Acceptors:                   7
##########                        HBond_Donors:                   3
##########                         Heavy_Atoms:                  30
##########                          Grid_Score:          -34.757351
##########                     Grid_vdw_energy:          -35.569324
##########                      Grid_es_energy:            0.811974
##########           Internal_energy_repulsive:           13.131260

@<TRIPOS>MOLECULE
ZINC000770850676
 58 60 1 0 0
SMALL
USER_CHARGES


@<TRIPOS>ATOM
      1 O1         -8.9194    3.4225   55.7770 O.2     1  ZINC000770850676   -0.5300
      2 C2         -8.6487    2.2740   55.4963 C.2     1  ZINC000770850676    0.5100
      3 N3         -7.7201    1.6069   56.2099 N.am    1  ZINC000770850676   -0.7000
      4 C4         -7.0333    2.2709   57.3205 C.3     1  ZINC000770850676    0.1600
      5 H5         -7.6284    3.1181   57.6613 H       1  ZINC000770850676    0.1000
      6 C6         -5.6639    2.7658   56.8506 C.3     1  ZINC000770850676    0.0600
      7 O7         -5.4024    4.0518   57.4160 O.3     1  ZINC000770850676   -0.5700
      8 C8         -6.8500    1.2804   58.4721 C.3     1  ZINC000770850676   -0.1500
      9 C9         -8.2209    0.8265   58.9775 C.3     1  ZINC000770850676    0.1500
     10 H10        -8.9776    1.5502   58.6745 H       1  ZINC000770850676    0.1100
     11 O11        -8.5345   -0.4518   58.4211 O.3     1  ZINC000770850676   -0.5400
     12 C12        -8.1944    0.7271   60.4810 C.ar    1  ZINC000770850676   -0.1200
     13 C13        -7.0616    0.2630   61.1231 C.ar    1  ZINC000770850676   -0.1100
     14 C14        -7.0372    0.1718   62.5022 C.ar    1  ZINC000770850676   -0.1200
     15 C15        -8.1455    0.5451   63.2393 C.ar    1  ZINC000770850676   -0.1200
     16 C16        -9.2780    1.0100   62.5973 C.ar    1  ZINC000770850676   -0.1200
     17 C17        -9.3008    1.1052   61.2184 C.ar    1  ZINC000770850676   -0.1100
     18 C18        -9.3552    1.5910   54.3538 C.3     1  ZINC000770850676    0.1400
     19 H19        -9.6826    2.3319   53.6245 H       1  ZINC000770850676    0.1000
     20 C20       -10.5718    0.8038   54.8846 C.3     1  ZINC000770850676   -0.1200
     21 C21       -10.5569   -0.4840   54.0192 C.3     1  ZINC000770850676   -0.1300
     22 C22        -9.0364   -0.7258   53.8476 C.3     1  ZINC000770850676    0.1000
     23 N23        -8.4513    0.6243   53.7134 N.am    1  ZINC000770850676   -0.5900
     24 C24        -7.2840    0.9178   53.1070 C.2     1  ZINC000770850676    0.6700
     25 O25        -6.6174    0.0313   52.6107 O.2     1  ZINC000770850676   -0.5600
     26 O26        -6.8566    2.1933   53.0511 O.3     1  ZINC000770850676   -0.3600
     27 C27        -6.2738    2.6388   51.7980 C.3     1  ZINC000770850676    0.1300
     28 C28        -4.7770    2.7325   51.9454 C.ar    1  ZINC000770850676   -0.1000
     29 C29        -4.2289    3.4830   52.9688 C.ar    1  ZINC000770850676   -0.0900
     30 C30        -2.8559    3.5690   53.1040 C.ar    1  ZINC000770850676   -0.1200
     31 C31        -2.0309    2.9041   52.2161 C.ar    1  ZINC000770850676   -0.1100
     32 C32        -2.5790    2.1529   51.1933 C.ar    1  ZINC000770850676   -0.1200
     33 C33        -3.9521    2.0634   51.0607 C.ar    1  ZINC000770850676   -0.0900
     34 H34        -7.5064    0.6871   55.9879 H       1  ZINC000770850676    0.4000
     35 H35        -4.8941    2.0641   57.1720 H       1  ZINC000770850676    0.0500
     36 H36        -5.6576    2.8390   55.7630 H       1  ZINC000770850676    0.0500
     37 H37        -5.6433    4.7908   56.8408 H       1  ZINC000770850676    0.3800
     38 H38        -6.2875    0.4152   58.1211 H       1  ZINC000770850676    0.0800
     39 H39        -6.3052    1.7632   59.2834 H       1  ZINC000770850676    0.0900
     40 H40        -7.9434   -1.1613   58.7080 H       1  ZINC000770850676    0.3700
     41 H41        -6.1957   -0.0285   60.5472 H       1  ZINC000770850676    0.1200
     42 H42        -6.1524   -0.1914   63.0038 H       1  ZINC000770850676    0.1200
     43 H43        -8.1268    0.4731   64.3167 H       1  ZINC000770850676    0.1200
     44 H44       -10.1440    1.3012   63.1730 H       1  ZINC000770850676    0.1200
     45 H45       -10.1857    1.4684   60.7167 H       1  ZINC000770850676    0.1200
     46 H46       -10.4437    0.5610   55.9394 H       1  ZINC000770850676    0.0800
     47 H47       -11.4930    1.3644   54.7258 H       1  ZINC000770850676    0.1000
     48 H48       -11.0274   -1.3142   54.5460 H       1  ZINC000770850676    0.0900
     49 H49       -11.0365   -0.3127   53.0555 H       1  ZINC000770850676    0.0800
     50 H50        -8.6312   -1.2307   54.7245 H       1  ZINC000770850676    0.0700
     51 H51        -8.8445   -1.3119   52.9489 H       1  ZINC000770850676    0.0900
     52 H52        -6.5174    1.9258   51.0102 H       1  ZINC000770850676    0.0800
     53 H53        -6.6754    3.6183   51.5383 H       1  ZINC000770850676    0.0800
     54 H54        -4.8735    4.0024   53.6625 H       1  ZINC000770850676    0.1200
     55 H55        -2.4277    4.1558   53.9032 H       1  ZINC000770850676    0.1300
     56 H56        -0.9582    2.9719   52.3214 H       1  ZINC000770850676    0.1300
     57 H57        -1.9345    1.6338   50.4994 H       1  ZINC000770850676    0.1300
     58 H58        -4.3803    1.4766   50.2616 H       1  ZINC000770850676    0.1200
@<TRIPOS>BOND
     1     1     2    2
     2     2     3   am
     3     2    18    1
     4     3     4    1
     5     3    34    1
     6     4     5    1
     7     4     6    1
     8     4     8    1
     9     6     7    1
    10     6    35    1
    11     6    36    1
    12     7    37    1
    13     8     9    1
    14     8    38    1
    15     8    39    1
    16     9    10    1
    17     9    11    1
    18     9    12    1
    19    11    40    1
    20    12    17   ar
    21    12    13   ar
    22    13    14   ar
    23    13    41    1
    24    14    15   ar
    25    14    42    1
    26    15    16   ar
    27    15    43    1
    28    16    17   ar
    29    16    44    1
    30    17    45    1
    31    18    19    1
    32    18    23    1
    33    18    20    1
    34    20    21    1
    35    20    46    1
    36    20    47    1
    37    21    22    1
    38    21    48    1
    39    21    49    1
    40    22    23    1
    41    22    50    1
    42    22    51    1
    43    23    24   am
    44    24    25    2
    45    24    26    1
    46    26    27    1
    47    27    28    1
    48    27    52    1
    49    27    53    1
    50    28    33   ar
    51    28    29   ar
    52    29    30   ar
    53    29    54    1
    54    30    31   ar
    55    30    55    1
    56    31    32   ar
    57    31    56    1
    58    32    33   ar
    59    32    57    1
    60    33    58    1
@<TRIPOS>SUBSTRUCTURE
     1 ZINC000770850676        1 TEMP              0 ****  ****    0 ROOT


##########                                Name:    ZINC000474251633
##########                DOCK_Rotatable_Bonds:                   8
##########                         Heavy_Atoms:                  28
##########                    Molecular_Weight:             416.931
##########                DOCK_Rotatable_Bonds:                   8
##########                       Formal_Charge:          0.00999953
##########                     HBond_Acceptors:                   8
##########                        HBond_Donors:                   2
##########                         Heavy_Atoms:                  28
##########                          Grid_Score:          -34.695686
##########                     Grid_vdw_energy:          -33.832748
##########                      Grid_es_energy:           -0.862937
##########           Internal_energy_repulsive:           10.435894

@<TRIPOS>MOLECULE
ZINC000474251633
 49 52 1 0 0
SMALL
USER_CHARGES


@<TRIPOS>ATOM
      1 O1        -12.0928   -1.6345   57.4805 O.2     1  ZINC000474251633   -0.5300
      2 C2        -10.9046   -1.6241   57.2378 C.2     1  ZINC000474251633    0.5100
      3 C3        -10.4243   -1.7743   55.8172 C.3     1  ZINC000474251633    0.1000
      4 N4         -9.3848   -0.7784   55.5453 N.am    1  ZINC000474251633   -0.7100
      5 C5         -9.1831   -0.3413   54.2864 C.2     1  ZINC000474251633    0.5900
      6 O6         -9.8654   -0.7726   53.3761 O.2     1  ZINC000474251633   -0.5000
      7 C7         -8.1401    0.6555   54.0137 C.2     1  ZINC000474251633   -0.2300
      8 C8         -7.1681    0.5108   53.1053 C.2     1  ZINC000474251633    0.0400
      9 Cl9        -7.0267   -0.9106   52.1186 Cl      1  ZINC000474251633   -0.0100
     10 C10        -6.2697    1.5868   53.0030 C.ar    1  ZINC000474251633   -0.0900
     11 C11        -5.1519    1.7316   52.1478 C.ar    1  ZINC000474251633   -0.0600
     12 C12        -4.3906    2.8573   52.1916 C.ar    1  ZINC000474251633   -0.1200
     13 C13        -4.6952    3.8852   53.0752 C.ar    1  ZINC000474251633   -0.0800
     14 C14        -5.7743    3.7739   53.9188 C.ar    1  ZINC000474251633   -0.0900
     15 C15        -6.5726    2.6259   53.8920 C.ar    1  ZINC000474251633   -0.1200
     16 S16        -8.0011    2.2031   54.8289 S.3     1  ZINC000474251633    0.1700
     17 N17       -10.0137   -1.4725   58.2378 N.am    1  ZINC000474251633   -0.7200
     18 C18       -10.4806   -1.3265   59.6186 C.3     1  ZINC000474251633    0.2100
     19 C19        -9.4275   -0.6200   60.4329 C.2     1  ZINC000474251633    0.0500
     20 N20        -9.6421    0.1080   61.4986 N.2     1  ZINC000474251633   -0.2700
     21 N21        -8.4079    0.5852   61.9585 N.pl3   1  ZINC000474251633   -0.3600
     22 C22        -8.1964    1.4400   63.1293 C.3     1  ZINC000474251633    0.1500
     23 C23        -9.3661    1.2759   64.1215 C.3     1  ZINC000474251633   -0.1400
     24 C24        -8.8582    0.2219   65.1366 C.3     1  ZINC000474251633   -0.1300
     25 C25        -7.3629    0.5932   65.2953 C.3     1  ZINC000474251633   -0.1200
     26 C26        -6.9227    1.0059   63.8757 C.3     1  ZINC000474251633   -0.1400
     27 C27        -7.4483    0.1184   61.1325 C.2     1  ZINC000474251633    0.0600
     28 C28        -8.0513   -0.6344   60.1834 C.2     1  ZINC000474251633   -0.2600
     29 H29       -10.0150   -2.7746   55.6759 H       1  ZINC000474251633    0.1100
     30 H30       -11.2596   -1.6235   55.1334 H       1  ZINC000474251633    0.1100
     31 H31        -8.8416   -0.4337   56.2713 H       1  ZINC000474251633    0.4100
     32 H32        -4.9012    0.9418   51.4552 H       1  ZINC000474251633    0.1300
     33 H33        -3.5402    2.9533   51.5329 H       1  ZINC000474251633    0.1400
     34 H34        -4.0820    4.7738   53.0994 H       1  ZINC000474251633    0.1400
     35 H35        -6.0067    4.5754   54.6045 H       1  ZINC000474251633    0.1400
     36 H36        -9.0635   -1.4602   58.0431 H       1  ZINC000474251633    0.4100
     37 H37       -11.4014   -0.7434   59.6312 H       1  ZINC000474251633    0.0900
     38 H38       -10.6687   -2.3120   60.0448 H       1  ZINC000474251633    0.0900
     39 H39        -8.1113    2.4818   62.8203 H       1  ZINC000474251633    0.1100
     40 H40        -9.5751    2.2202   64.6244 H       1  ZINC000474251633    0.0900
     41 H41       -10.2552    0.9121   63.6064 H       1  ZINC000474251633    0.0800
     42 H42        -9.3829    0.3169   66.0872 H       1  ZINC000474251633    0.0800
     43 H43        -8.9655   -0.7852   64.7339 H       1  ZINC000474251633    0.0700
     44 H44        -7.2483    1.4271   65.9878 H       1  ZINC000474251633    0.0700
     45 H45        -6.7900   -0.2689   65.6369 H       1  ZINC000474251633    0.0700
     46 H46        -6.4620    0.1593   63.3667 H       1  ZINC000474251633    0.0700
     47 H47        -6.2199    1.8372   63.9295 H       1  ZINC000474251633    0.0800
     48 H48        -6.3883    0.3081   61.2164 H       1  ZINC000474251633    0.1700
     49 H49        -7.5579   -1.1501   59.3729 H       1  ZINC000474251633    0.1500
@<TRIPOS>BOND
     1     1     2    2
     2     2     3    1
     3     2    17   am
     4     3     4    1
     5     3    29    1
     6     3    30    1
     7     4     5   am
     8     4    31    1
     9     5     6    2
    10     5     7    1
    11     7    16    1
    12     7     8    2
    13     8     9    1
    14     8    10    1
    15    10    15   ar
    16    10    11   ar
    17    11    12   ar
    18    11    32    1
    19    12    13   ar
    20    12    33    1
    21    13    14   ar
    22    13    34    1
    23    14    15   ar
    24    14    35    1
    25    15    16    1
    26    17    18    1
    27    17    36    1
    28    18    19    1
    29    18    37    1
    30    18    38    1
    31    19    28    1
    32    19    20    2
    33    20    21    1
    34    21    22    1
    35    21    27    1
    36    22    26    1
    37    22    23    1
    38    22    39    1
    39    23    24    1
    40    23    40    1
    41    23    41    1
    42    24    25    1
    43    24    42    1
    44    24    43    1
    45    25    26    1
    46    25    44    1
    47    25    45    1
    48    26    46    1
    49    26    47    1
    50    27    28    2
    51    27    48    1
    52    28    49    1
@<TRIPOS>SUBSTRUCTURE
     1 ZINC000474251633        1 TEMP              0 ****  ****    0 ROOT


##########                                Name:    ZINC001090961577
##########                DOCK_Rotatable_Bonds:                   9
##########                         Heavy_Atoms:                  24
##########                    Molecular_Weight:             352.458
##########                DOCK_Rotatable_Bonds:                   9
##########                       Formal_Charge:                0.02
##########                     HBond_Acceptors:                   8
##########                        HBond_Donors:                   1
##########                         Heavy_Atoms:                  24
##########                          Grid_Score:          -34.493637
##########                     Grid_vdw_energy:          -33.739979
##########                      Grid_es_energy:           -0.753659
##########           Internal_energy_repulsive:            9.237901

@<TRIPOS>MOLECULE
ZINC001090961577
 48 49 1 0 0
SMALL
USER_CHARGES


@<TRIPOS>ATOM
      1 C1        -16.1433   -2.8214   56.3176 C.3     1  ZINC001090961577   -0.1400
      2 C2        -16.0518   -3.5638   57.6523 C.3     1  ZINC001090961577   -0.0900
      3 S3        -14.6615   -2.9077   58.6151 S.3     1  ZINC001090961577   -0.2700
      4 C4        -13.2389   -3.1983   57.5277 C.3     1  ZINC001090961577   -0.0700
      5 C5        -11.9995   -2.5228   58.1179 C.3     1  ZINC001090961577   -0.1200
      6 C6        -10.8348   -2.7012   57.1784 C.2     1  ZINC001090961577    0.5400
      7 O7        -10.0391   -3.5978   57.3624 O.2     1  ZINC001090961577   -0.5300
      8 N8        -10.6774   -1.8644   56.1337 N.am    1  ZINC001090961577   -0.6200
      9 C9        -11.5629   -0.7407   55.7949 C.3     1  ZINC001090961577    0.1100
     10 C10       -10.9750   -0.0552   54.5435 C.3     1  ZINC001090961577   -0.1100
     11 H11       -11.4594   -0.4228   53.6389 H       1  ZINC001090961577    0.0900
     12 C12       -11.1080    1.4656   54.6465 C.3     1  ZINC001090961577   -0.1400
     13 C13        -9.4842   -0.4835   54.5807 C.3     1  ZINC001090961577    0.1500
     14 H14        -8.9104    0.1565   55.2511 H       1  ZINC001090961577    0.1200
     15 N15        -8.9041   -0.4838   53.2355 N.pl3   1  ZINC001090961577   -0.6700
     16 C16        -7.7777    0.2661   52.9700 C.ar    1  ZINC001090961577    0.5900
     17 N17        -6.7704   -0.2950   52.3137 N.ar    1  ZINC001090961577   -0.5700
     18 C18        -5.6753    0.3884   52.0401 C.ar    1  ZINC001090961577    0.2700
     19 C19        -5.5871    1.7247   52.4539 C.ar    1  ZINC001090961577   -0.3000
     20 C20        -4.3830    2.5266   52.1698 C.2     1  ZINC001090961577    0.5300
     21 O21        -3.5145    2.0826   51.4453 O.2     1  ZINC001090961577   -0.5100
     22 O22        -4.2458    3.7517   52.7134 O.3     1  ZINC001090961577   -0.3600
     23 C23        -2.9911    4.0378   53.3859 C.3     1  ZINC001090961577    0.0400
     24 C24        -6.6737    2.2787   53.1445 C.ar    1  ZINC001090961577    0.2600
     25 N25        -7.7352    1.5293   53.3738 N.ar    1  ZINC001090961577   -0.5700
     26 C26        -9.5851   -1.9202   55.1451 C.3     1  ZINC001090961577    0.0900
     27 H27       -16.9787   -3.2157   55.7390 H       1  ZINC001090961577    0.0700
     28 H28       -16.2990   -1.7587   56.5029 H       1  ZINC001090961577    0.0700
     29 H29       -15.2172   -2.9611   55.7600 H       1  ZINC001090961577    0.0700
     30 H30       -16.9779   -3.4241   58.2099 H       1  ZINC001090961577    0.0800
     31 H31       -15.8960   -4.6266   57.4670 H       1  ZINC001090961577    0.0800
     32 H32       -13.0616   -4.2702   57.4400 H       1  ZINC001090961577    0.0900
     33 H33       -13.4446   -2.7822   56.5414 H       1  ZINC001090961577    0.0900
     34 H34       -12.1958   -1.4595   58.2553 H       1  ZINC001090961577    0.1000
     35 H35       -11.7624   -2.9758   59.0805 H       1  ZINC001090961577    0.1000
     36 H36       -12.5650   -1.1106   55.5786 H       1  ZINC001090961577    0.0800
     37 H37       -11.5975   -0.0332   56.6234 H       1  ZINC001090961577    0.0800
     38 H38       -10.5922    1.8157   55.5406 H       1  ZINC001090961577    0.0600
     39 H39       -10.6640    1.9296   53.7658 H       1  ZINC001090961577    0.0600
     40 H40       -12.1625    1.7348   54.7065 H       1  ZINC001090961577    0.0700
     41 H41        -9.3124   -1.0117   52.5314 H       1  ZINC001090961577    0.4200
     42 H42        -4.8592   -0.0751   51.5058 H       1  ZINC001090961577    0.1800
     43 H43        -3.0122    5.0550   53.7771 H       1  ZINC001090961577    0.1100
     44 H44        -2.8509    3.3354   54.2075 H       1  ZINC001090961577    0.0700
     45 H45        -2.1684    3.9377   52.6780 H       1  ZINC001090961577    0.0700
     46 H46        -6.6442    3.3048   53.4800 H       1  ZINC001090961577    0.1800
     47 H47        -8.6490   -2.2061   55.6248 H       1  ZINC001090961577    0.0900
     48 H48        -9.8353   -2.6232   54.3504 H       1  ZINC001090961577    0.0800
@<TRIPOS>BOND
     1     1     2    1
     2     1    27    1
     3     1    28    1
     4     1    29    1
     5     2     3    1
     6     2    30    1
     7     2    31    1
     8     3     4    1
     9     4     5    1
    10     4    32    1
    11     4    33    1
    12     5     6    1
    13     5    34    1
    14     5    35    1
    15     6     7    2
    16     6     8   am
    17     8    26    1
    18     8     9    1
    19     9    10    1
    20     9    36    1
    21     9    37    1
    22    10    11    1
    23    10    12    1
    24    10    13    1
    25    12    38    1
    26    12    39    1
    27    12    40    1
    28    13    14    1
    29    13    15    1
    30    13    26    1
    31    15    16    1
    32    15    41    1
    33    16    25   ar
    34    16    17   ar
    35    17    18   ar
    36    18    19   ar
    37    18    42    1
    38    19    20    1
    39    19    24   ar
    40    20    21    2
    41    20    22    1
    42    22    23    1
    43    23    43    1
    44    23    44    1
    45    23    45    1
    46    24    25   ar
    47    24    46    1
    48    26    47    1
    49    26    48    1
@<TRIPOS>SUBSTRUCTURE
     1 ZINC001090961577        1 TEMP              0 ****  ****    0 ROOT


##########                                Name:    ZINC000599797189
##########                DOCK_Rotatable_Bonds:                  13
##########                         Heavy_Atoms:                  23
##########                    Molecular_Weight:             329.313
##########                DOCK_Rotatable_Bonds:                  13
##########                       Formal_Charge:          0.00999949
##########                     HBond_Acceptors:                  11
##########                        HBond_Donors:                   3
##########                         Heavy_Atoms:                  23
##########                          Grid_Score:          -34.299995
##########                     Grid_vdw_energy:          -30.796026
##########                      Grid_es_energy:           -3.503969
##########           Internal_energy_repulsive:           83.100540

@<TRIPOS>MOLECULE
ZINC000599797189
 42 42 1 0 0
SMALL
USER_CHARGES


@<TRIPOS>ATOM
      1 C1         -9.5559   -0.9373   53.2262 C.3     1  ZINC000599797189   -0.1500
      2 C2        -10.1606   -1.2358   54.5996 C.3     1  ZINC000599797189    0.0600
      3 O3         -9.1340   -1.7748   55.4737 O.3     1  ZINC000599797189   -0.3600
      4 C4         -9.5424   -2.3153   56.6324 C.2     1  ZINC000599797189    0.4500
      5 O5         -9.2664   -3.4619   56.8946 O.2     1  ZINC000599797189   -0.4800
      6 C6        -10.3453   -1.4919   57.6063 C.3     1  ZINC000599797189    0.1500
      7 N7         -9.4491   -0.6012   58.3478 N.pl3   1  ZINC000599797189   -0.3800
      8 C8         -9.2763    0.7160   58.1457 C.2     1  ZINC000599797189    0.2800
      9 N9         -8.3944    1.1498   59.0099 N.2     1  ZINC000599797189   -0.5100
     10 C10        -7.9814    0.1392   59.7805 C.2     1  ZINC000599797189    0.4700
     11 N11        -7.0416    0.2333   60.8122 N.am    1  ZINC000599797189   -0.6400
     12 C12        -7.4480    0.4772   62.0740 C.2     1  ZINC000599797189    0.7100
     13 O13        -8.6315    0.6169   62.3151 O.2     1  ZINC000599797189   -0.5300
     14 N14        -6.5426    0.5662   63.0683 N.am    1  ZINC000599797189   -0.7300
     15 C15        -6.9846    0.8295   64.4400 C.3     1  ZINC000599797189    0.1100
     16 C16        -5.9008    1.6126   65.1836 C.3     1  ZINC000599797189    0.1100
     17 H17        -4.9435    1.1035   65.0720 H       1  ZINC000599797189    0.1200
     18 O18        -5.8061    2.9301   64.6382 O.3     1  ZINC000599797189   -0.5400
     19 C19        -6.2621    1.6999   66.6678 C.3     1  ZINC000599797189   -0.1500
     20 C20        -6.3621    0.3107   67.2430 C.2     1  ZINC000599797189    0.4600
     21 O21        -5.3856   -0.2174   67.7200 O.2     1  ZINC000599797189   -0.4900
     22 O22        -7.5359   -0.3401   67.2256 O.3     1  ZINC000599797189   -0.3600
     23 C23        -8.6666    0.3557   66.6373 C.3     1  ZINC000599797189    0.0400
     24 N24        -8.6058   -0.9544   59.4137 N.2     1  ZINC000599797189   -0.3200
     25 H25       -10.3265   -0.5328   52.5700 H       1  ZINC000599797189    0.0800
     26 H26        -8.7515   -0.2098   53.3338 H       1  ZINC000599797189    0.0700
     27 H27        -9.1588   -1.8570   52.7964 H       1  ZINC000599797189    0.0700
     28 H28       -10.5576   -0.3162   55.0294 H       1  ZINC000599797189    0.0700
     29 H29       -10.9649   -1.9635   54.4920 H       1  ZINC000599797189    0.0700
     30 H30       -11.0789   -0.8978   57.0614 H       1  ZINC000599797189    0.1500
     31 H31       -10.8592   -2.1531   58.3039 H       1  ZINC000599797189    0.1300
     32 H32        -9.7782    1.3133   57.3990 H       1  ZINC000599797189    0.2300
     33 H33        -6.0973    0.1230   60.6197 H       1  ZINC000599797189    0.4200
     34 H34        -5.5983    0.4559   62.8757 H       1  ZINC000599797189    0.4000
     35 H35        -7.9050    1.4130   64.4194 H       1  ZINC000599797189    0.0800
     36 H36        -7.1652   -0.1160   64.9513 H       1  ZINC000599797189    0.0800
     37 H37        -5.1370    3.4844   65.0627 H       1  ZINC000599797189    0.3800
     38 H38        -5.4900    2.2578   67.1975 H       1  ZINC000599797189    0.1200
     39 H39        -7.2195    2.2091   66.7792 H       1  ZINC000599797189    0.1200
     40 H40        -8.8515    1.2785   67.1871 H       1  ZINC000599797189    0.0600
     41 H41        -8.4467    0.5910   65.5959 H       1  ZINC000599797189    0.0600
     42 H42        -9.5504   -0.2803   66.6872 H       1  ZINC000599797189    0.1000
@<TRIPOS>BOND
     1     1     2    1
     2     1    25    1
     3     1    26    1
     4     1    27    1
     5     2     3    1
     6     2    28    1
     7     2    29    1
     8     3     4    1
     9     4     5    2
    10     4     6    1
    11     6     7    1
    12     6    30    1
    13     6    31    1
    14     7    24    1
    15     7     8    1
    16     8     9    2
    17     8    32    1
    18     9    10    1
    19    10    11    1
    20    10    24    2
    21    11    12   am
    22    11    33    1
    23    12    13    2
    24    12    14   am
    25    14    15    1
    26    14    34    1
    27    15    16    1
    28    15    35    1
    29    15    36    1
    30    16    17    1
    31    16    18    1
    32    16    19    1
    33    18    37    1
    34    19    20    1
    35    19    38    1
    36    19    39    1
    37    20    21    2
    38    20    22    1
    39    22    23    1
    40    23    40    1
    41    23    41    1
    42    23    42    1
@<TRIPOS>SUBSTRUCTURE
     1 ZINC000599797189        1 TEMP              0 ****  ****    0 ROOT


##########                                Name:     oleObject52.pdb
##########                DOCK_Rotatable_Bonds:                  10
##########                         Heavy_Atoms:                  38
##########                    Molecular_Weight:              533.07
##########                DOCK_Rotatable_Bonds:                  10
##########                       Formal_Charge:         0.000300027
##########                     HBond_Acceptors:                   8
##########                        HBond_Donors:                   0
##########                         Heavy_Atoms:                  38
##########                          Grid_Score:          -33.979935
##########                     Grid_vdw_energy:          -33.973034
##########                      Grid_es_energy:           -0.006901
##########           Internal_energy_repulsive:          195.246841

@<TRIPOS>MOLECULE
oleObject52.pdb
 71 74 1 0 0
SMALL
NO_CHARGES


@<TRIPOS>ATOM
      1 C         -17.1124    1.4039   62.9222 C.ar    1  UNL        -0.0596
      2 C         -17.0103    2.0126   61.6623 C.ar    1  UNL        -0.0314
      3 C         -15.8863    1.7733   60.8431 C.ar    1  UNL         0.0800
      4 C         -14.8581    0.9124   61.2924 C.ar    1  UNL         0.0089
      5 C         -14.9726    0.3120   62.5647 C.ar    1  UNL        -0.0541
      6 C         -16.0929    0.5549   63.3736 C.ar    1  UNL        -0.0617
      7 C         -13.6353    0.6607   60.3970 C.3     1  UNL         0.0953
      8 C         -12.3205    0.6212   61.1956 C.ar    1  UNL         0.0684
      9 C         -11.1323    0.0684   60.6550 C.ar    1  UNL        -0.0272
     10 C          -9.9674    0.0809   61.4449 C.ar    1  UNL        -0.0559
     11 C         -10.0193    0.6373   62.7310 C.ar    1  UNL        -0.0435
     12 C         -11.2362    1.1664   63.1856 C.ar    1  UNL         0.0272
     13 N         -12.3555    1.1592   62.4381 N.ar    1  UNL        -0.2587
     14 C         -11.0738   -0.5197   59.2504 C.3     1  UNL        -0.0379
     15 N         -13.8036   -0.4637   59.4326 N.am    1  UNL        -0.2917
     16 C         -13.4060   -0.3146   58.0996 C.2     1  UNL         0.2180
     17 O         -12.6909    0.6172   57.7704 O.2     1  UNL        -0.2772
     18 C         -13.6119   -1.5265   57.1553 C.3     1  UNL         0.0385
     19 C         -12.5927   -2.6583   57.4315 C.3     1  UNL        -0.0289
     20 C         -11.1804   -2.3065   56.9162 C.3     1  UNL        -0.0010
     21 N         -11.1931   -1.9880   55.4695 N.4     1  UNL        -0.3010
     22 C         -12.1254   -0.8904   55.1307 C.3     1  UNL        -0.0010
     23 C         -13.5614   -1.1436   55.6522 C.3     1  UNL        -0.0289
     24 C          -9.8533   -1.7557   54.8856 C.3     1  UNL         0.0222
     25 C          -9.8879   -1.4302   53.3780 C.3     1  UNL         0.0661
     26 O          -9.5687   -0.0359   53.2226 O.3     1  UNL        -0.3432
     27 C          -8.3109    0.4282   52.8896 C.ar    1  UNL         0.0937
     28 C          -7.2860   -0.4364   52.4509 C.ar    1  UNL        -0.0289
     29 C          -6.0203    0.0769   52.1219 C.ar    1  UNL        -0.0417
     30 C          -5.7659    1.4552   52.2273 C.ar    1  UNL         0.0537
     31 C          -6.7841    2.3198   52.6635 C.ar    1  UNL        -0.0230
     32 C          -8.0507    1.8094   52.9931 C.ar    1  UNL         0.0721
     33 CL         -9.2952    2.9204   53.5338 Cl      1  UNL        -0.0814
     34 C          -4.4725    1.9770   51.8909 C.1     1  UNL         0.0992
     35 N          -3.4263    2.3875   51.6188 N.1     1  UNL        -0.1924
     36 C         -14.4350   -1.6995   59.9446 C.3     1  UNL         0.0037
     37 O         -15.7584    2.3691   59.6000 O.3     1  UNL        -0.3490
     38 C         -16.7334    3.2643   59.0391 C.3     1  UNL         0.0422
     39 H         -17.9799    1.5923   63.5481 H       1  UNL         0.0624
     40 H         -17.8100    2.6683   61.3351 H       1  UNL         0.0651
     41 H         -14.1949   -0.3460   62.9371 H       1  UNL         0.0627
     42 H         -16.1693    0.0851   64.3499 H       1  UNL         0.0623
     43 H         -13.5695    1.5584   59.7724 H       1  UNL         0.0627
     44 H          -9.0352   -0.3289   61.0671 H       1  UNL         0.0627
     45 H          -9.1350    0.6626   63.3607 H       1  UNL         0.0639
     46 H         -11.3178    1.6118   64.1763 H       1  UNL         0.0840
     47 H         -11.8712   -1.2541   59.0951 H       1  UNL         0.0280
     48 H         -10.1200   -1.0280   59.0628 H       1  UNL         0.0280
     49 H         -11.1844    0.2662   58.4925 H       1  UNL         0.0280
     50 H         -14.6169   -1.9229   57.3342 H       1  UNL         0.0402
     51 H         -12.9309   -3.5733   56.9282 H       1  UNL         0.0288
     52 H         -12.5524   -2.8914   58.5018 H       1  UNL         0.0288
     53 H         -10.5271   -3.1632   57.1177 H       1  UNL         0.0431
     54 H         -10.7917   -1.4483   57.4804 H       1  UNL         0.0431
     55 H         -12.1700   -0.7652   54.0412 H       1  UNL         0.0431
     56 H         -11.7474    0.0511   55.5484 H       1  UNL         0.0431
     57 H         -13.9977   -1.9640   55.0678 H       1  UNL         0.0288
     58 H         -14.1875   -0.2617   55.4655 H       1  UNL         0.0288
     59 H          -9.2173   -2.6358   55.0478 H       1  UNL         0.0455
     60 H          -9.3795   -0.9081   55.3979 H       1  UNL         0.0455
     61 H         -10.8909   -1.6369   52.9833 H       1  UNL         0.0586
     62 H          -9.1548   -2.0437   52.8406 H       1  UNL         0.0586
     63 H          -7.4570   -1.5042   52.3604 H       1  UNL         0.0651
     64 H          -5.2381   -0.5985   51.7848 H       1  UNL         0.0638
     65 H          -6.5952    3.3869   52.7476 H       1  UNL         0.0653
     66 H         -15.1060   -1.4749   60.7816 H       1  UNL         0.0433
     67 H         -13.6636   -2.4011   60.2849 H       1  UNL         0.0433
     68 H         -15.0414   -2.1718   59.1631 H       1  UNL         0.0433
     69 H         -16.3979    3.6068   58.0525 H       1  UNL         0.0535
     70 H         -16.8651    4.1415   59.6852 H       1  UNL         0.0535
     71 H         -17.6983    2.7555   58.9203 H       1  UNL         0.0535
@<TRIPOS>BOND
     1     1     2   ar
     2     1     6   ar
     3     1    39    1
     4     2     3   ar
     5     2    40    1
     6     3     4   ar
     7     3    37    1
     8     4     5   ar
     9     4     7    1
    10     5     6   ar
    11     5    41    1
    12     6    42    1
    13     7     8    1
    14     7    15    1
    15     7    43    1
    16     8     9   ar
    17     8    13   ar
    18     9    10   ar
    19     9    14    1
    20    10    11   ar
    21    10    44    1
    22    11    12   ar
    23    11    45    1
    24    12    13   ar
    25    12    46    1
    26    14    47    1
    27    14    48    1
    28    14    49    1
    29    15    16   am
    30    15    36    1
    31    16    17    2
    32    16    18    1
    33    18    19    1
    34    18    23    1
    35    18    50    1
    36    19    20    1
    37    19    51    1
    38    19    52    1
    39    20    21    1
    40    20    53    1
    41    20    54    1
    42    21    22    1
    43    21    24    1
    44    22    23    1
    45    22    55    1
    46    22    56    1
    47    23    57    1
    48    23    58    1
    49    24    25    1
    50    24    59    1
    51    24    60    1
    52    25    26    1
    53    25    61    1
    54    25    62    1
    55    26    27    1
    56    27    28   ar
    57    27    32   ar
    58    28    29   ar
    59    28    63    1
    60    29    30   ar
    61    29    64    1
    62    30    31   ar
    63    30    34    1
    64    31    32   ar
    65    31    65    1
    66    32    33    1
    67    34    35    3
    68    36    66    1
    69    36    67    1
    70    36    68    1
    71    37    38    1
    72    38    69    1
    73    38    70    1
    74    38    71    1
@<TRIPOS>SUBSTRUCTURE
     1 UNL         1 TEMP              0 ****  ****    0 ROOT


##########                                Name:    ZINC000110375116
##########                DOCK_Rotatable_Bonds:                  10
##########                         Heavy_Atoms:                  27
##########                    Molecular_Weight:             396.511
##########                DOCK_Rotatable_Bonds:                  10
##########                       Formal_Charge:        -2.23517e-07
##########                     HBond_Acceptors:                   9
##########                        HBond_Donors:                   0
##########                         Heavy_Atoms:                  27
##########                          Grid_Score:          -33.939209
##########                     Grid_vdw_energy:          -32.800262
##########                      Grid_es_energy:           -1.138946
##########           Internal_energy_repulsive:           28.187092

@<TRIPOS>MOLECULE
ZINC000110375116
 55 56 1 0 0
SMALL
USER_CHARGES


@<TRIPOS>ATOM
      1 C1         -6.3291    2.4888   64.4318 C.3     1  ZINC000110375116   -0.1700
      2 C2         -6.3517    0.9802   64.1771 C.3     1  ZINC000110375116    0.1000
      3 N3         -7.7252    0.5523   63.9003 N.am    1  ZINC000110375116   -0.6200
      4 C4         -8.5812    0.0849   64.9935 C.3     1  ZINC000110375116    0.1100
      5 C5         -9.3427    1.2713   65.5879 C.3     1  ZINC000110375116   -0.1700
      6 C6         -8.2014    0.5884   62.6400 C.2     1  ZINC000110375116    0.5100
      7 O7         -9.3389    0.2355   62.4111 O.2     1  ZINC000110375116   -0.5300
      8 C8         -7.3202    1.0675   61.5151 C.3     1  ZINC000110375116   -0.1400
      9 C9         -8.0220    0.8224   60.1778 C.3     1  ZINC000110375116   -0.0900
     10 C10        -7.2662    1.5504   59.0644 C.3     1  ZINC000110375116   -0.1400
     11 C11        -8.1816    1.7517   57.8843 C.2     1  ZINC000110375116    0.5200
     12 O12        -9.2690    1.2151   57.8619 O.2     1  ZINC000110375116   -0.5300
     13 N13        -7.7918    2.5279   56.8537 N.am    1  ZINC000110375116   -0.6200
     14 C14        -6.4752    3.1808   56.8652 C.3     1  ZINC000110375116    0.0900
     15 C15        -5.7192    2.7818   55.5918 C.3     1  ZINC000110375116    0.1000
     16 N16        -6.6030    2.9901   54.4363 N.am    1  ZINC000110375116   -1.0000
     17 S17        -6.1237    3.9430   53.1696 S.o2    1  ZINC000110375116    2.7000
     18 O18        -7.1243    3.8135   52.1689 O.2     1  ZINC000110375116   -0.9400
     19 O19        -5.7411    5.1918   53.7292 O.2     1  ZINC000110375116   -0.9500
     20 C20        -4.6583    3.2266   52.5033 C.ar    1  ZINC000110375116   -0.7400
     21 C21        -3.4116    3.7099   52.8694 C.ar    1  ZINC000110375116    0.0200
     22 C22        -2.2857    3.1150   52.3203 C.ar    1  ZINC000110375116   -0.1900
     23 C23        -2.4428    2.0676   51.4326 C.ar    1  ZINC000110375116    0.1500
     24 N24        -3.6448    1.6338   51.1069 N.ar    1  ZINC000110375116   -0.4900
     25 C25        -4.7370    2.1718   51.6133 C.ar    1  ZINC000110375116    0.2000
     26 C26        -7.9196    2.3373   54.4248 C.3     1  ZINC000110375116    0.1000
     27 C27        -8.6734    2.7317   55.6956 C.3     1  ZINC000110375116    0.1000
     28 H28        -5.3072    2.8072   64.6377 H       1  ZINC000110375116    0.0700
     29 H29        -6.7022    3.0115   63.5512 H       1  ZINC000110375116    0.0600
     30 H30        -6.9619    2.7221   65.2881 H       1  ZINC000110375116    0.0600
     31 H31        -5.7190    0.7469   63.3207 H       1  ZINC000110375116    0.0800
     32 H32        -5.9787    0.4574   65.0578 H       1  ZINC000110375116    0.0800
     33 H33        -9.2916   -0.6480   64.6109 H       1  ZINC000110375116    0.0800
     34 H34        -7.9651   -0.3754   65.7660 H       1  ZINC000110375116    0.0800
     35 H35        -9.9796    0.9236   66.4013 H       1  ZINC000110375116    0.0700
     36 H36        -8.6324    2.0041   65.9706 H       1  ZINC000110375116    0.0500
     37 H37        -9.9588    1.7314   64.8154 H       1  ZINC000110375116    0.0600
     38 H38        -7.1267    2.1335   61.6339 H       1  ZINC000110375116    0.0900
     39 H39        -6.3765    0.5224   61.5355 H       1  ZINC000110375116    0.0900
     40 H40        -8.0386   -0.2468   59.9668 H       1  ZINC000110375116    0.0800
     41 H41        -9.0437    1.1986   60.2294 H       1  ZINC000110375116    0.0800
     42 H42        -6.9258    2.5193   59.4295 H       1  ZINC000110375116    0.1000
     43 H43        -6.4060    0.9544   58.7594 H       1  ZINC000110375116    0.1000
     44 H44        -6.6037    4.2629   56.8905 H       1  ZINC000110375116    0.0800
     45 H45        -5.9135    2.8559   57.7411 H       1  ZINC000110375116    0.1000
     46 H46        -4.8278    3.4001   55.4868 H       1  ZINC000110375116    0.1100
     47 H47        -5.4341    1.7313   55.6496 H       1  ZINC000110375116    0.0800
     48 H48        -3.3194    4.5303   53.5656 H       1  ZINC000110375116    0.1500
     49 H49        -1.2987    3.4659   52.5827 H       1  ZINC000110375116    0.1500
     50 H50        -1.5710    1.5992   51.0001 H       1  ZINC000110375116    0.1700
     51 H51        -5.7044    1.7897   51.3229 H       1  ZINC000110375116    0.1700
     52 H52        -8.4814    2.6620   53.5489 H       1  ZINC000110375116    0.1100
     53 H53        -7.7912    1.2552   54.3995 H       1  ZINC000110375116    0.0800
     54 H54        -9.5645    2.1127   55.7994 H       1  ZINC000110375116    0.1100
     55 H55        -8.9590    3.7822   55.6404 H       1  ZINC000110375116    0.0800
@<TRIPOS>BOND
     1     1     2    1
     2     1    28    1
     3     1    29    1
     4     1    30    1
     5     2     3    1
     6     2    31    1
     7     2    32    1
     8     3     4    1
     9     3     6   am
    10     4     5    1
    11     4    33    1
    12     4    34    1
    13     5    35    1
    14     5    36    1
    15     5    37    1
    16     6     7    2
    17     6     8    1
    18     8     9    1
    19     8    38    1
    20     8    39    1
    21     9    10    1
    22     9    40    1
    23     9    41    1
    24    10    11    1
    25    10    42    1
    26    10    43    1
    27    11    12    2
    28    11    13   am
    29    13    27    1
    30    13    14    1
    31    14    15    1
    32    14    44    1
    33    14    45    1
    34    15    16    1
    35    15    46    1
    36    15    47    1
    37    16    17   am
    38    16    26    1
    39    17    18    2
    40    17    19    2
    41    17    20    1
    42    20    25   ar
    43    20    21   ar
    44    21    22   ar
    45    21    48    1
    46    22    23   ar
    47    22    49    1
    48    23    24   ar
    49    23    50    1
    50    24    25   ar
    51    25    51    1
    52    26    27    1
    53    26    52    1
    54    26    53    1
    55    27    54    1
    56    27    55    1
@<TRIPOS>SUBSTRUCTURE
     1 ZINC000110375116        1 TEMP              0 ****  ****    0 ROOT


##########                                Name:    ZINC000995593866
##########                DOCK_Rotatable_Bonds:                   7
##########                         Heavy_Atoms:                  24
##########                    Molecular_Weight:             342.389
##########                DOCK_Rotatable_Bonds:                   7
##########                       Formal_Charge:                0.03
##########                     HBond_Acceptors:                   8
##########                        HBond_Donors:                   1
##########                         Heavy_Atoms:                  24
##########                          Grid_Score:          -33.913383
##########                     Grid_vdw_energy:          -32.889507
##########                      Grid_es_energy:           -1.023875
##########           Internal_energy_repulsive:            9.896224

@<TRIPOS>MOLECULE
ZINC000995593866
 48 50 1 0 0
SMALL
USER_CHARGES


@<TRIPOS>ATOM
      1 C1         -8.0572    3.8054   51.6048 C.3     1  ZINC000995593866   -0.1400
      2 C2         -6.9643    3.2626   52.5279 C.3     1  ZINC000995593866   -0.0800
      3 C3         -6.1205    4.4112   53.0842 C.3     1  ZINC000995593866   -0.1400
      4 C4         -7.5907    2.4471   53.6796 C.3     1  ZINC000995593866    0.1200
      5 N5         -7.5459    1.0426   53.2104 N.am    1  ZINC000995593866   -0.6300
      6 C6         -8.4843    0.0880   53.3680 C.2     1  ZINC000995593866    0.5400
      7 O7         -8.2989   -1.0242   52.9211 O.2     1  ZINC000995593866   -0.5300
      8 C8         -9.7637    0.4027   54.0993 C.3     1  ZINC000995593866   -0.1300
      9 C9        -10.3316   -0.8807   54.7089 C.3     1  ZINC000995593866   -0.1000
     10 C10        -9.6890   -1.2608   56.0534 C.3     1  ZINC000995593866   -0.1300
     11 C11       -11.0972   -1.6619   56.5234 C.3     1  ZINC000995593866   -0.1400
     12 C12       -11.6417   -0.6667   55.4852 C.3     1  ZINC000995593866   -0.1400
     13 C13        -6.2357    0.9253   52.5290 C.3     1  ZINC000995593866    0.1100
     14 C14        -6.0709    2.2592   51.7692 C.3     1  ZINC000995593866    0.0800
     15 H15        -6.4106    2.1530   50.7391 H       1  ZINC000995593866    0.0700
     16 N16        -4.6685    2.6952   51.8012 N.3     1  ZINC000995593866   -0.6800
     17 C17        -3.8065    1.7491   51.0802 C.3     1  ZINC000995593866    0.1500
     18 C18        -2.3621    2.1207   51.2960 C.2     1  ZINC000995593866    0.1900
     19 N19        -1.3392    1.7310   50.5739 N.2     1  ZINC000995593866   -0.4300
     20 C20        -0.2603    2.3063   51.1343 C.2     1  ZINC000995593866    0.0900
     21 C21         1.1665    2.1682   50.6696 C.3     1  ZINC000995593866    0.3800
     22 F22         1.1878    1.9480   49.2882 F       1  ZINC000995593866   -0.1800
     23 F23         1.8690    3.3412   50.9657 F       1  ZINC000995593866   -0.1700
     24 N24        -0.6745    3.0035   52.1497 N.2     1  ZINC000995593866   -0.3400
     25 O25        -1.8795    2.9149   52.2564 O.3     1  ZINC000995593866    0.1000
     26 H26        -8.6734    2.9805   51.2471 H       1  ZINC000995593866    0.0600
     27 H27        -8.6791    4.5119   52.1544 H       1  ZINC000995593866    0.0600
     28 H28        -7.5974    4.3104   50.7553 H       1  ZINC000995593866    0.0600
     29 H29        -6.7608    5.0970   53.6389 H       1  ZINC000995593866    0.0700
     30 H30        -5.3550    4.0109   53.7489 H       1  ZINC000995593866    0.0700
     31 H31        -5.6444    4.9441   52.2610 H       1  ZINC000995593866    0.0600
     32 H32        -7.0032    2.5625   54.5904 H       1  ZINC000995593866    0.0800
     33 H33        -8.6214    2.7586   53.8490 H       1  ZINC000995593866    0.0900
     34 H34        -9.5614    1.1228   54.8921 H       1  ZINC000995593866    0.0900
     35 H35       -10.4871    0.8243   53.4013 H       1  ZINC000995593866    0.0900
     36 H36       -10.3759   -1.7042   53.9963 H       1  ZINC000995593866    0.1000
     37 H37        -8.9963   -2.0995   55.9845 H       1  ZINC000995593866    0.0700
     38 H38        -9.2737   -0.4107   56.5946 H       1  ZINC000995593866    0.0800
     39 H39       -11.3503   -2.6999   56.3078 H       1  ZINC000995593866    0.0800
     40 H40       -11.3108   -1.3783   57.5540 H       1  ZINC000995593866    0.0700
     41 H41       -11.7602    0.3458   55.8712 H       1  ZINC000995593866    0.0800
     42 H42       -12.5254   -1.0257   54.9577 H       1  ZINC000995593866    0.0700
     43 H43        -5.4366    0.8031   53.2601 H       1  ZINC000995593866    0.0900
     44 H44        -6.2442    0.0886   51.8304 H       1  ZINC000995593866    0.0800
     45 H45        -4.5714    3.6283   51.4298 H       1  ZINC000995593866    0.3600
     46 H46        -3.9819    0.7404   51.4538 H       1  ZINC000995593866    0.1200
     47 H47        -4.0363    1.7873   50.0154 H       1  ZINC000995593866    0.0800
     48 H48         1.6347    1.3259   51.1790 H       1  ZINC000995593866    0.1500
@<TRIPOS>BOND
     1     1     2    1
     2     1    26    1
     3     1    27    1
     4     1    28    1
     5     2    14    1
     6     2     3    1
     7     2     4    1
     8     3    29    1
     9     3    30    1
    10     3    31    1
    11     4     5    1
    12     4    32    1
    13     4    33    1
    14     5     6   am
    15     5    13    1
    16     6     7    2
    17     6     8    1
    18     8     9    1
    19     8    34    1
    20     8    35    1
    21     9    12    1
    22     9    10    1
    23     9    36    1
    24    10    11    1
    25    10    37    1
    26    10    38    1
    27    11    12    1
    28    11    39    1
    29    11    40    1
    30    12    41    1
    31    12    42    1
    32    13    14    1
    33    13    43    1
    34    13    44    1
    35    14    15    1
    36    14    16    1
    37    16    17    1
    38    16    45    1
    39    17    18    1
    40    17    46    1
    41    17    47    1
    42    18    25    1
    43    18    19    2
    44    19    20    1
    45    20    21    1
    46    20    24    2
    47    21    22    1
    48    21    23    1
    49    21    48    1
    50    24    25    1
@<TRIPOS>SUBSTRUCTURE
     1 ZINC000995593866        1 TEMP              0 ****  ****    0 ROOT


##########                                Name:    ZINC000621594459
##########                DOCK_Rotatable_Bonds:                  10
##########                         Heavy_Atoms:                  25
##########                    Molecular_Weight:             389.497
##########                DOCK_Rotatable_Bonds:                  10
##########                       Formal_Charge:         -7.7486e-07
##########                     HBond_Acceptors:                  10
##########                        HBond_Donors:                   3
##########                         Heavy_Atoms:                  25
##########                          Grid_Score:          -33.870312
##########                     Grid_vdw_energy:          -33.666958
##########                      Grid_es_energy:           -0.203355
##########           Internal_energy_repulsive:           10.878358

@<TRIPOS>MOLECULE
ZINC000621594459
 48 49 1 0 0
SMALL
USER_CHARGES


@<TRIPOS>ATOM
      1 C1          4.0632   -2.5741   48.4088 C.3     1  ZINC000621594459   -0.1600
      2 C2          4.3219   -1.0738   48.2555 C.3     1  ZINC000621594459    0.1300
      3 C3          3.9844   -0.6415   46.8272 C.3     1  ZINC000621594459   -0.1800
      4 N4          3.4819   -0.3344   49.2010 N.am    1  ZINC000621594459   -1.1100
      5 S5          4.0012    1.1143   49.8124 S.o2    1  ZINC000621594459    2.6200
      6 O6          5.1617    0.7823   50.5624 O.2     1  ZINC000621594459   -0.9500
      7 O7          4.0813    1.9653   48.6772 O.2     1  ZINC000621594459   -0.9400
      8 C8          2.6621    1.6468   50.9140 C.3     1  ZINC000621594459   -0.6600
      9 C9          1.3672    1.7881   50.1113 C.3     1  ZINC000621594459    0.1300
     10 N10         0.3045    2.2936   50.9838 N.am    1  ZINC000621594459   -0.7200
     11 C11        -0.9833    1.9988   50.7175 C.2     1  ZINC000621594459    0.5600
     12 O12        -1.2630    1.3123   49.7542 O.2     1  ZINC000621594459   -0.5200
     13 C13        -2.0560    2.5104   51.5970 C.ar    1  ZINC000621594459   -0.1500
     14 C14        -1.7346    3.2356   52.7452 C.ar    1  ZINC000621594459   -0.0300
     15 C15        -2.7404    3.7106   53.5616 C.ar    1  ZINC000621594459   -0.1400
     16 C16        -4.0651    3.4690   53.2442 C.ar    1  ZINC000621594459    0.0100
     17 C17        -4.3905    2.7502   52.1075 C.ar    1  ZINC000621594459   -0.6800
     18 S18        -6.0809    2.4476   51.7128 S.o2    1  ZINC000621594459    2.7000
     19 O19        -6.7481    3.6977   51.8198 O.2     1  ZINC000621594459   -0.9400
     20 O20        -6.0821    1.6649   50.5267 O.2     1  ZINC000621594459   -0.9500
     21 N21        -6.6987    1.4839   52.9095 N.am    1  ZINC000621594459   -1.0900
     22 C22        -6.7009    1.9510   54.2981 C.3     1  ZINC000621594459    0.0800
     23 C23        -7.7892    2.9456   54.7071 C.3     1  ZINC000621594459   -0.1800
     24 C24        -7.8549    1.4968   55.1943 C.3     1  ZINC000621594459   -0.1900
     25 C25        -3.3949    2.2750   51.2796 C.ar    1  ZINC000621594459    0.0400
     26 H26         4.6882   -3.1242   47.7054 H       1  ZINC000621594459    0.0700
     27 H27         4.3036   -2.8820   49.4263 H       1  ZINC000621594459    0.0700
     28 H28         3.0135   -2.7846   48.2039 H       1  ZINC000621594459    0.0600
     29 H29         5.3715   -0.8633   48.4605 H       1  ZINC000621594459    0.0900
     30 H30         2.9348   -0.8520   46.6223 H       1  ZINC000621594459    0.0700
     31 H31         4.1686    0.4273   46.7181 H       1  ZINC000621594459    0.0600
     32 H32         4.6094   -1.1916   46.1238 H       1  ZINC000621594459    0.0700
     33 H33         2.6214   -0.6934   49.4688 H       1  ZINC000621594459    0.4200
     34 H34         2.5226    0.9057   51.7010 H       1  ZINC000621594459    0.1400
     35 H35         2.9193    2.6072   51.3606 H       1  ZINC000621594459    0.1400
     36 H36         1.5241    2.4855   49.2884 H       1  ZINC000621594459    0.0900
     37 H37         1.0785    0.8153   49.7131 H       1  ZINC000621594459    0.0900
     38 H38         0.5277    2.8404   51.7533 H       1  ZINC000621594459    0.4000
     39 H39        -0.7008    3.4243   52.9945 H       1  ZINC000621594459    0.1300
     40 H40        -2.4931    4.2720   54.4504 H       1  ZINC000621594459    0.1400
     41 H41        -4.8486    3.8427   53.8868 H       1  ZINC000621594459    0.1500
     42 H42        -7.0592    0.6103   52.6911 H       1  ZINC000621594459    0.4200
     43 H43        -5.7192    2.0610   54.7586 H       1  ZINC000621594459    0.1400
     44 H44        -7.5234    3.7105   55.4368 H       1  ZINC000621594459    0.1100
     45 H45        -8.5034    3.2525   53.9431 H       1  ZINC000621594459    0.1000
     46 H46        -8.6123    0.8505   54.7507 H       1  ZINC000621594459    0.1000
     47 H47        -7.6323    1.3084   56.2446 H       1  ZINC000621594459    0.1000
     48 H48        -3.6502    1.7145   50.3925 H       1  ZINC000621594459    0.1600
@<TRIPOS>BOND
     1     1     2    1
     2     1    26    1
     3     1    27    1
     4     1    28    1
     5     2     3    1
     6     2     4    1
     7     2    29    1
     8     3    30    1
     9     3    31    1
    10     3    32    1
    11     4     5   am
    12     4    33    1
    13     5     6    2
    14     5     7    2
    15     5     8    1
    16     8     9    1
    17     8    34    1
    18     8    35    1
    19     9    10    1
    20     9    36    1
    21     9    37    1
    22    10    11   am
    23    10    38    1
    24    11    12    2
    25    11    13    1
    26    13    25   ar
    27    13    14   ar
    28    14    15   ar
    29    14    39    1
    30    15    16   ar
    31    15    40    1
    32    16    17   ar
    33    16    41    1
    34    17    18    1
    35    17    25   ar
    36    18    19    2
    37    18    20    2
    38    18    21   am
    39    21    22    1
    40    21    42    1
    41    22    24    1
    42    22    23    1
    43    22    43    1
    44    23    24    1
    45    23    44    1
    46    23    45    1
    47    24    46    1
    48    24    47    1
    49    25    48    1
@<TRIPOS>SUBSTRUCTURE
     1 ZINC000621594459        1 TEMP              0 ****  ****    0 ROOT


##########                                Name:    ZINC000484900616
##########                DOCK_Rotatable_Bonds:                  10
##########                         Heavy_Atoms:                  29
##########                    Molecular_Weight:             415.556
##########                DOCK_Rotatable_Bonds:                  10
##########                       Formal_Charge:        -1.49012e-08
##########                     HBond_Acceptors:                   7
##########                        HBond_Donors:                   1
##########                         Heavy_Atoms:                  29
##########                          Grid_Score:          -33.792400
##########                     Grid_vdw_energy:          -33.920418
##########                      Grid_es_energy:            0.128017
##########           Internal_energy_repulsive:           13.574594

@<TRIPOS>MOLECULE
ZINC000484900616
 58 60 1 0 0
SMALL
USER_CHARGES


@<TRIPOS>ATOM
      1 C1         -8.1488   -0.2172   66.5503 C.3     1  ZINC000484900616   -0.1500
      2 C2         -8.8815    0.9012   65.8066 C.3     1  ZINC000484900616    0.0600
      3 O3         -9.1174    0.4950   64.4327 O.3     1  ZINC000484900616   -0.3400
      4 C4         -8.1505    0.7767   63.5367 C.2     1  ZINC000484900616    0.5500
      5 O5         -7.0744    1.1962   63.9155 O.2     1  ZINC000484900616   -0.5000
      6 C6         -8.3977    0.5765   62.1003 C.2     1  ZINC000484900616    0.0200
      7 C7         -7.6227    1.1194   61.1335 C.2     1  ZINC000484900616   -0.2400
      8 S8         -8.2364    0.6525   59.6078 S.3     1  ZINC000484900616    0.2900
      9 C9         -9.4907   -0.2395   60.3474 C.2     1  ZINC000484900616    0.0300
     10 C10       -10.5478   -1.0134   59.6024 C.3     1  ZINC000484900616    0.1500
     11 H11       -10.5388   -2.0591   59.9098 H       1  ZINC000484900616    0.0900
     12 C12       -11.9450   -0.3913   59.8478 C.3     1  ZINC000484900616   -0.1200
     13 C13       -12.7233   -0.8634   58.5915 C.3     1  ZINC000484900616   -0.1400
     14 C14       -11.6510   -0.8223   57.4824 C.3     1  ZINC000484900616    0.0500
     15 N15       -10.3339   -0.9038   58.1437 N.3     1  ZINC000484900616   -0.5100
     16 C16        -9.5586   -2.0428   57.6342 C.3     1  ZINC000484900616    0.0300
     17 C17        -9.5261   -1.9950   56.1283 C.2     1  ZINC000484900616    0.5200
     18 O18        -9.6474   -3.0169   55.4864 O.2     1  ZINC000484900616   -0.5100
     19 N19        -9.3623   -0.8168   55.4949 N.am    1  ZINC000484900616   -0.7300
     20 C20        -9.3324   -0.7701   54.0309 C.3     1  ZINC000484900616    0.1900
     21 H21        -8.9400   -1.7110   53.6452 H       1  ZINC000484900616    0.1000
     22 C22       -10.7504   -0.5526   53.4987 C.3     1  ZINC000484900616   -0.1600
     23 C23        -8.4480    0.3646   53.5823 C.ar    1  ZINC000484900616   -0.1000
     24 C24        -8.7427    1.6615   53.9597 C.ar    1  ZINC000484900616   -0.1100
     25 C25        -7.9314    2.7023   53.5482 C.ar    1  ZINC000484900616   -0.1100
     26 C26        -6.8252    2.4464   52.7598 C.ar    1  ZINC000484900616   -0.0800
     27 C27        -5.9409    3.5811   52.3109 C.3     1  ZINC000484900616   -0.0900
     28 C28        -4.5768    3.4657   52.9940 C.3     1  ZINC000484900616   -0.1500
     29 C29        -6.5297    1.1494   52.3837 C.ar    1  ZINC000484900616   -0.1100
     30 C30        -7.3389    0.1081   52.7983 C.ar    1  ZINC000484900616   -0.1000
     31 N31        -9.4051   -0.1634   61.6285 N.2     1  ZINC000484900616   -0.4300
     32 H32        -8.7576   -1.1213   66.5381 H       1  ZINC000484900616    0.0700
     33 H33        -7.1950   -0.4148   66.0610 H       1  ZINC000484900616    0.0700
     34 H34        -7.9717    0.0877   67.5819 H       1  ZINC000484900616    0.0800
     35 H35        -9.8352    1.0988   66.2959 H       1  ZINC000484900616    0.0700
     36 H36        -8.2728    1.8053   65.8188 H       1  ZINC000484900616    0.0700
     37 H37        -6.7581    1.7452   61.2984 H       1  ZINC000484900616    0.1900
     38 H38       -12.3950   -0.7883   60.7579 H       1  ZINC000484900616    0.0900
     39 H39       -11.8870    0.6965   59.8852 H       1  ZINC000484900616    0.0800
     40 H40       -13.0972   -1.8781   58.7286 H       1  ZINC000484900616    0.0700
     41 H41       -13.5398   -0.1783   58.3638 H       1  ZINC000484900616    0.0800
     42 H42       -11.7799   -1.6706   56.8104 H       1  ZINC000484900616    0.0600
     43 H43       -11.7302    0.1108   56.9247 H       1  ZINC000484900616    0.0900
     44 H44        -8.5409   -1.9919   58.0214 H       1  ZINC000484900616    0.1100
     45 H45       -10.0245   -2.9734   57.9582 H       1  ZINC000484900616    0.0700
     46 H46        -9.2640    0.0004   56.0082 H       1  ZINC000484900616    0.4000
     47 H47       -10.7282   -0.5178   52.4095 H       1  ZINC000484900616    0.0700
     48 H48       -11.3901   -1.3734   53.8231 H       1  ZINC000484900616    0.0700
     49 H49       -11.1429    0.3883   53.8843 H       1  ZINC000484900616    0.0600
     50 H50        -9.6070    1.8614   54.5756 H       1  ZINC000484900616    0.1200
     51 H51        -8.1621    3.7156   53.8423 H       1  ZINC000484900616    0.1200
     52 H52        -5.8110    3.5345   51.2297 H       1  ZINC000484900616    0.0700
     53 H53        -6.4033    4.5306   52.5807 H       1  ZINC000484900616    0.0700
     54 H54        -4.7069    3.5123   54.0753 H       1  ZINC000484900616    0.0600
     55 H55        -4.1145    2.5163   52.7242 H       1  ZINC000484900616    0.0600
     56 H56        -3.9373    4.2865   52.6694 H       1  ZINC000484900616    0.0600
     57 H57        -5.6651    0.9494   51.7680 H       1  ZINC000484900616    0.1200
     58 H58        -7.1079   -0.9053   52.5044 H       1  ZINC000484900616    0.1200
@<TRIPOS>BOND
     1     1     2    1
     2     1    32    1
     3     1    33    1
     4     1    34    1
     5     2     3    1
     6     2    35    1
     7     2    36    1
     8     3     4    1
     9     4     5    2
    10     4     6    1
    11     6    31    1
    12     6     7    2
    13     7     8    1
    14     7    37    1
    15     8     9    1
    16     9    10    1
    17     9    31    2
    18    10    11    1
    19    10    15    1
    20    10    12    1
    21    12    13    1
    22    12    38    1
    23    12    39    1
    24    13    14    1
    25    13    40    1
    26    13    41    1
    27    14    15    1
    28    14    42    1
    29    14    43    1
    30    15    16    1
    31    16    17    1
    32    16    44    1
    33    16    45    1
    34    17    18    2
    35    17    19   am
    36    19    20    1
    37    19    46    1
    38    20    21    1
    39    20    22    1
    40    20    23    1
    41    22    47    1
    42    22    48    1
    43    22    49    1
    44    23    30   ar
    45    23    24   ar
    46    24    25   ar
    47    24    50    1
    48    25    26   ar
    49    25    51    1
    50    26    27    1
    51    26    29   ar
    52    27    28    1
    53    27    52    1
    54    27    53    1
    55    28    54    1
    56    28    55    1
    57    28    56    1
    58    29    30   ar
    59    29    57    1
    60    30    58    1
@<TRIPOS>SUBSTRUCTURE
     1 ZINC000484900616        1 TEMP              0 ****  ****    0 ROOT


##########                                Name:    ZINC000767361237
##########                DOCK_Rotatable_Bonds:                  10
##########                         Heavy_Atoms:                  30
##########                    Molecular_Weight:             409.439
##########                DOCK_Rotatable_Bonds:                  10
##########                       Formal_Charge:          -0.0300005
##########                     HBond_Acceptors:                   7
##########                        HBond_Donors:                   1
##########                         Heavy_Atoms:                  30
##########                          Grid_Score:          -33.781586
##########                     Grid_vdw_energy:          -34.080517
##########                      Grid_es_energy:            0.298931
##########           Internal_energy_repulsive:           19.222813

@<TRIPOS>MOLECULE
ZINC000767361237
 53 55 1 0 0
SMALL
USER_CHARGES


@<TRIPOS>ATOM
      1 C1         -7.5140    0.6618   61.6044 C.3     1  ZINC000767361237   -0.1200
      2 C2         -8.4517    0.2839   60.4868 C.ar    1  ZINC000767361237   -0.0900
      3 C3         -9.6245   -0.3918   60.7672 C.ar    1  ZINC000767361237   -0.1200
      4 C4        -10.4846   -0.7384   59.7420 C.ar    1  ZINC000767361237   -0.1100
      5 C5        -10.1720   -0.4090   58.4364 C.ar    1  ZINC000767361237   -0.0800
      6 C6        -11.1094   -0.7873   57.3188 C.3     1  ZINC000767361237   -0.0800
      7 H7        -11.2506    0.0678   56.6579 H       1  ZINC000767361237    0.0900
      8 C8        -12.4588   -1.2070   57.9051 C.3     1  ZINC000767361237   -0.1500
      9 C9        -10.5136   -1.9520   56.5255 C.3     1  ZINC000767361237    0.1300
     10 H10       -11.2345   -2.7685   56.4821 H       1  ZINC000767361237    0.1400
     11 O11        -9.3198   -2.4043   57.1676 O.3     1  ZINC000767361237   -0.5200
     12 C12       -10.1891   -1.4935   55.1271 C.2     1  ZINC000767361237    0.4300
     13 O13       -10.3906   -2.2274   54.1887 O.2     1  ZINC000767361237   -0.5000
     14 O14        -9.6763   -0.2697   54.9241 O.3     1  ZINC000767361237   -0.3300
     15 C15        -9.1352    0.0079   53.6056 C.3     1  ZINC000767361237    0.0100
     16 C16        -8.5889    1.4120   53.5722 C.2     1  ZINC000767361237    0.3700
     17 O17        -9.3426    2.3511   53.4813 O.2     1  ZINC000767361237   -0.4200
     18 C18        -7.1020    1.6440   53.6521 C.3     1  ZINC000767361237   -0.1800
     19 C19        -6.7096    2.7714   52.6950 C.3     1  ZINC000767361237    0.1200
     20 N20        -5.2495    2.8743   52.6342 N.am    1  ZINC000767361237   -0.5800
     21 C21        -4.4882    3.4629   53.5742 C.2     1  ZINC000767361237    0.5700
     22 O22        -4.8961    3.9851   54.5920 O.2     1  ZINC000767361237   -0.4600
     23 C23        -3.0721    3.3669   53.1614 C.ar    1  ZINC000767361237   -0.1400
     24 C24        -1.8726    3.7838   53.7150 C.ar    1  ZINC000767361237   -0.0400
     25 C25        -0.6831    3.5282   53.0499 C.ar    1  ZINC000767361237   -0.0900
     26 C26        -0.6865    2.8611   51.8398 C.ar    1  ZINC000767361237   -0.0900
     27 C27        -1.8794    2.4381   51.2737 C.ar    1  ZINC000767361237   -0.0400
     28 C28        -3.0756    2.6864   51.9267 C.ar    1  ZINC000767361237   -0.1400
     29 C29        -4.4932    2.3876   51.6338 C.2     1  ZINC000767361237    0.5700
     30 O30        -4.9064    1.8022   50.6531 O.2     1  ZINC000767361237   -0.4600
     31 C31        -8.9999    0.2680   58.1561 C.ar    1  ZINC000767361237   -0.1100
     32 C32        -8.1416    0.6180   59.1817 C.ar    1  ZINC000767361237   -0.1200
     33 H33        -7.7815    1.6474   61.9855 H       1  ZINC000767361237    0.0700
     34 H34        -7.5914   -0.0714   62.4072 H       1  ZINC000767361237    0.0700
     35 H35        -6.4909    0.6829   61.2289 H       1  ZINC000767361237    0.0700
     36 H36        -9.8687   -0.6492   61.7873 H       1  ZINC000767361237    0.1200
     37 H37       -11.4006   -1.2670   59.9612 H       1  ZINC000767361237    0.1200
     38 H38       -13.1369   -1.4806   57.0967 H       1  ZINC000767361237    0.0800
     39 H39       -12.3177   -2.0622   58.5661 H       1  ZINC000767361237    0.0700
     40 H40       -12.8834   -0.3772   58.4703 H       1  ZINC000767361237    0.0600
     41 H41        -8.8251   -3.0620   56.6598 H       1  ZINC000767361237    0.3900
     42 H42        -8.3351   -0.6987   53.3851 H       1  ZINC000767361237    0.1100
     43 H43        -9.9244   -0.0928   52.8605 H       1  ZINC000767361237    0.1100
     44 H44        -6.8320    1.9219   54.6709 H       1  ZINC000767361237    0.1100
     45 H45        -6.5762    0.7309   53.3730 H       1  ZINC000767361237    0.1100
     46 H46        -7.1004    2.5563   51.7005 H       1  ZINC000767361237    0.1100
     47 H47        -7.1256    3.7132   53.0529 H       1  ZINC000767361237    0.1100
     48 H48        -1.8640    4.3058   54.6604 H       1  ZINC000767361237    0.1400
     49 H49         0.2525    3.8531   53.4806 H       1  ZINC000767361237    0.1400
     50 H50         0.2465    2.6682   51.3311 H       1  ZINC000767361237    0.1400
     51 H51        -1.8760    1.9167   50.3278 H       1  ZINC000767361237    0.1400
     52 H52        -8.7558    0.5256   57.1361 H       1  ZINC000767361237    0.1200
     53 H53        -7.2258    1.1468   58.9627 H       1  ZINC000767361237    0.1200
@<TRIPOS>BOND
     1     1     2    1
     2     1    33    1
     3     1    34    1
     4     1    35    1
     5     2    32   ar
     6     2     3   ar
     7     3     4   ar
     8     3    36    1
     9     4     5   ar
    10     4    37    1
    11     5     6    1
    12     5    31   ar
    13     6     7    1
    14     6     8    1
    15     6     9    1
    16     8    38    1
    17     8    39    1
    18     8    40    1
    19     9    10    1
    20     9    11    1
    21     9    12    1
    22    11    41    1
    23    12    13    2
    24    12    14    1
    25    14    15    1
    26    15    16    1
    27    15    42    1
    28    15    43    1
    29    16    17    2
    30    16    18    1
    31    18    19    1
    32    18    44    1
    33    18    45    1
    34    19    20    1
    35    19    46    1
    36    19    47    1
    37    20    29   am
    38    20    21   am
    39    21    22    2
    40    21    23    1
    41    23    28   ar
    42    23    24   ar
    43    24    25   ar
    44    24    48    1
    45    25    26   ar
    46    25    49    1
    47    26    27   ar
    48    26    50    1
    49    27    28   ar
    50    27    51    1
    51    28    29    1
    52    29    30    2
    53    31    32   ar
    54    31    52    1
    55    32    53    1
@<TRIPOS>SUBSTRUCTURE
     1 ZINC000767361237        1 TEMP              0 ****  ****    0 ROOT


##########                                Name:    ZINC000279452407
##########                DOCK_Rotatable_Bonds:                   6
##########                         Heavy_Atoms:                  24
##########                    Molecular_Weight:              375.47
##########                DOCK_Rotatable_Bonds:                   6
##########                       Formal_Charge:          0.00999929
##########                     HBond_Acceptors:                  10
##########                        HBond_Donors:                   3
##########                         Heavy_Atoms:                  24
##########                          Grid_Score:          -33.618237
##########                     Grid_vdw_energy:          -28.642862
##########                      Grid_es_energy:           -4.975376
##########           Internal_energy_repulsive:           27.500343

@<TRIPOS>MOLECULE
ZINC000279452407
 45 47 1 0 0
SMALL
USER_CHARGES


@<TRIPOS>ATOM
      1 C1        -13.2787   -0.2167   57.8600 C.3     1  ZINC000279452407   -0.1600
      2 C2        -13.8128   -1.4911   57.2030 C.3     1  ZINC000279452407    0.0600
      3 H3        -13.2151   -1.7341   56.3245 H       1  ZINC000279452407    0.0700
      4 O4        -15.1888   -1.3071   56.8239 O.3     1  ZINC000279452407   -0.3700
      5 C5        -15.8479   -2.5808   56.9958 C.3     1  ZINC000279452407    0.0500
      6 C6        -15.2348   -3.1329   58.3092 C.3     1  ZINC000279452407   -0.1400
      7 C7        -13.7674   -2.6544   58.2045 C.3     1  ZINC000279452407    0.0700
      8 C8        -13.2812   -2.1640   59.5660 C.3     1  ZINC000279452407    0.1100
      9 N9        -11.8380   -1.8861   59.4730 N.am    1  ZINC000279452407   -0.6300
     10 C10       -11.3249   -0.7205   59.9142 C.2     1  ZINC000279452407    0.7200
     11 O11       -12.0565    0.1214   60.3980 O.2     1  ZINC000279452407   -0.5800
     12 N12       -10.0006   -0.4883   59.8193 N.am    1  ZINC000279452407   -0.7500
     13 C13        -9.4430    0.7785   60.2988 C.3     1  ZINC000279452407    0.2000
     14 C14        -8.8807    0.5876   61.6840 C.2     1  ZINC000279452407   -0.1700
     15 C15        -7.6066    0.3104   61.9653 C.2     1  ZINC000279452407   -0.1400
     16 C16        -7.3222    0.1790   63.3135 C.2     1  ZINC000279452407    0.0100
     17 C17        -8.3653    0.3495   64.1272 C.2     1  ZINC000279452407   -0.7900
     18 S18        -8.3101    0.2440   65.8853 S.o2    1  ZINC000279452407    2.7300
     19 N19        -9.6185    1.0754   66.4675 N.am    1  ZINC000279452407   -1.2500
     20 O20        -8.5248   -1.1221   66.2122 O.2     1  ZINC000279452407   -0.9600
     21 O21        -7.1590    0.9695   66.2947 O.2     1  ZINC000279452407   -0.9500
     22 S22        -9.8026    0.7036   63.1773 S.3     1  ZINC000279452407    0.2500
     23 C23       -10.9735   -2.9211   58.8837 C.3     1  ZINC000279452407    0.0700
     24 C24       -11.5702   -3.3430   57.5362 C.3     1  ZINC000279452407    0.0400
     25 O25       -12.9414   -3.7067   57.7214 O.3     1  ZINC000279452407   -0.3600
     26 H26       -12.2137   -0.3311   58.0620 H       1  ZINC000279452407    0.0700
     27 H27       -13.4327    0.6294   57.1904 H       1  ZINC000279452407    0.0600
     28 H28       -13.8091   -0.0407   58.7958 H       1  ZINC000279452407    0.0800
     29 H29       -16.9240   -2.4444   57.1024 H       1  ZINC000279452407    0.1000
     30 H30       -15.6251   -3.2439   56.1600 H       1  ZINC000279452407    0.0700
     31 H31       -15.7261   -2.6997   59.1806 H       1  ZINC000279452407    0.1000
     32 H32       -15.2868   -4.2213   58.3357 H       1  ZINC000279452407    0.1000
     33 H33       -13.8130   -1.2525   59.8383 H       1  ZINC000279452407    0.1200
     34 H34       -13.4584   -2.9336   60.3172 H       1  ZINC000279452407    0.0800
     35 H35        -9.4169   -1.1601   59.4332 H       1  ZINC000279452407    0.4000
     36 H36        -8.6493    1.1040   59.6263 H       1  ZINC000279452407    0.1000
     37 H37       -10.2283    1.5339   60.3265 H       1  ZINC000279452407    0.0900
     38 H38        -6.8540    0.1967   61.1990 H       1  ZINC000279452407    0.1600
     39 H39        -6.3308   -0.0451   63.6790 H       1  ZINC000279452407    0.1600
     40 H40        -9.7679    1.1365   67.4240 H       1  ZINC000279452407    0.4200
     41 H41       -10.2356    1.5012   65.8520 H       1  ZINC000279452407    0.4200
     42 H42        -9.9722   -2.5186   58.7311 H       1  ZINC000279452407    0.0900
     43 H43       -10.9275   -3.7827   59.5498 H       1  ZINC000279452407    0.0900
     44 H44       -11.5057   -2.5123   56.8335 H       1  ZINC000279452407    0.0600
     45 H45       -11.0169   -4.1964   57.1442 H       1  ZINC000279452407    0.1100
@<TRIPOS>BOND
     1     1     2    1
     2     1    26    1
     3     1    27    1
     4     1    28    1
     5     2     3    1
     6     2     7    1
     7     2     4    1
     8     4     5    1
     9     5     6    1
    10     5    29    1
    11     5    30    1
    12     6     7    1
    13     6    31    1
    14     6    32    1
    15     7    25    1
    16     7     8    1
    17     8     9    1
    18     8    33    1
    19     8    34    1
    20     9    10   am
    21     9    23    1
    22    10    11    2
    23    10    12   am
    24    12    13    1
    25    12    35    1
    26    13    14    1
    27    13    36    1
    28    13    37    1
    29    14    22    1
    30    14    15    2
    31    15    16    1
    32    15    38    1
    33    16    17    2
    34    16    39    1
    35    17    18    1
    36    17    22    1
    37    18    19   am
    38    18    20    2
    39    18    21    2
    40    19    40    1
    41    19    41    1
    42    23    24    1
    43    23    42    1
    44    23    43    1
    45    24    25    1
    46    24    44    1
    47    24    45    1
@<TRIPOS>SUBSTRUCTURE
     1 ZINC000279452407        1 TEMP              0 ****  ****    0 ROOT


##########                                Name:    ZINC000150894060
##########                DOCK_Rotatable_Bonds:                  10
##########                         Heavy_Atoms:                  27
##########                    Molecular_Weight:              366.42
##########                DOCK_Rotatable_Bonds:                  10
##########                       Formal_Charge:        -6.70552e-07
##########                     HBond_Acceptors:                   7
##########                        HBond_Donors:                   2
##########                         Heavy_Atoms:                  27
##########                          Grid_Score:          -33.565117
##########                     Grid_vdw_energy:          -32.053944
##########                      Grid_es_energy:           -1.511172
##########           Internal_energy_repulsive:           12.739153

@<TRIPOS>MOLECULE
ZINC000150894060
 49 51 1 0 0
SMALL
USER_CHARGES


@<TRIPOS>ATOM
      1 C1          0.7940    2.9453   62.6068 C.3     1  ZINC000150894060   -0.1000
      2 C2          0.8484    1.5446   62.0534 C.2     1  ZINC000150894060   -0.0800
      3 C3          0.8660    1.1893   60.7351 C.2     1  ZINC000150894060   -0.1000
      4 C4          0.8345    2.1099   59.5939 C.2     1  ZINC000150894060    0.6100
      5 O5          0.7892    3.3113   59.7824 O.2     1  ZINC000150894060   -0.5100
      6 N6          0.8558    1.6254   58.3365 N.am    1  ZINC000150894060   -0.7200
      7 C7          0.8261    2.5451   57.1965 C.3     1  ZINC000150894060    0.1200
      8 C8         -0.5912    2.6008   56.6229 C.3     1  ZINC000150894060   -0.1500
      9 C9         -0.6004    3.4801   55.3708 C.3     1  ZINC000150894060    0.1200
     10 N10        -1.9573    3.5329   54.8211 N.am    1  ZINC000150894060   -0.7300
     11 C11        -2.1448    3.5198   53.4866 C.2     1  ZINC000150894060    0.5600
     12 O12        -1.1881    3.4626   52.7389 O.2     1  ZINC000150894060   -0.5300
     13 C13        -3.5141    3.5748   52.9318 C.ar    1  ZINC000150894060   -0.1300
     14 C14        -3.9278    2.6301   51.9913 C.ar    1  ZINC000150894060   -0.0900
     15 C15        -5.2071    2.6867   51.4780 C.ar    1  ZINC000150894060   -0.0900
     16 C16        -6.0792    3.6774   51.8933 C.ar    1  ZINC000150894060   -0.0800
     17 C17        -7.4750    3.7334   51.3279 C.3     1  ZINC000150894060    0.1700
     18 N18        -8.3968    3.0435   52.2337 N.pl3   1  ZINC000150894060   -0.3700
     19 C19        -8.0991    1.9824   53.0125 C.2     1  ZINC000150894060    0.0500
     20 C20        -9.2178    1.6448   53.6949 C.2     1  ZINC000150894060   -0.2700
     21 C21       -10.2339    2.5300   53.3203 C.2     1  ZINC000150894060    0.0400
     22 N22        -9.7413    3.3727   52.4490 N.2     1  ZINC000150894060   -0.2900
     23 C23        -5.6756    4.6165   52.8257 C.ar    1  ZINC000150894060   -0.1100
     24 C24        -4.4008    4.5681   53.3508 C.ar    1  ZINC000150894060   -0.0600
     25 O25         0.9175   -0.1572   60.6664 O.3     1  ZINC000150894060   -0.1700
     26 C26         0.9329   -0.6653   61.9054 C.2     1  ZINC000150894060    0.0000
     27 C27         0.8967    0.3528   62.7932 C.2     1  ZINC000150894060   -0.2300
     28 H28         1.8078    3.3233   62.7388 H       1  ZINC000150894060    0.0800
     29 H29         0.2536    3.5893   61.9131 H       1  ZINC000150894060    0.0900
     30 H30         0.2815    2.9363   63.5687 H       1  ZINC000150894060    0.0700
     31 H31         0.8907    0.6677   58.1862 H       1  ZINC000150894060    0.4100
     32 H32         1.1246    3.5406   57.5250 H       1  ZINC000150894060    0.0800
     33 H33         1.5154    2.1941   56.4285 H       1  ZINC000150894060    0.0800
     34 H34        -0.9175    1.5940   56.3622 H       1  ZINC000150894060    0.0800
     35 H35        -1.2680    3.0209   57.3668 H       1  ZINC000150894060    0.0800
     36 H36        -0.2745    4.4870   55.6315 H       1  ZINC000150894060    0.0800
     37 H37         0.0768    3.0602   54.6270 H       1  ZINC000150894060    0.0800
     38 H38        -2.7209    3.5772   55.4177 H       1  ZINC000150894060    0.4000
     39 H39        -3.2479    1.8568   51.6657 H       1  ZINC000150894060    0.1300
     40 H40        -5.5284    1.9564   50.7501 H       1  ZINC000150894060    0.1300
     41 H41        -7.7819    4.7737   51.2202 H       1  ZINC000150894060    0.1100
     42 H42        -7.4918    3.2469   50.3526 H       1  ZINC000150894060    0.1000
     43 H43        -7.1399    1.4905   53.0789 H       1  ZINC000150894060    0.1700
     44 H44        -9.3099    0.8348   54.4032 H       1  ZINC000150894060    0.1500
     45 H45       -11.2486    2.5224   53.6903 H       1  ZINC000150894060    0.1800
     46 H46        -6.3612    5.3871   53.1459 H       1  ZINC000150894060    0.1300
     47 H47        -4.0870    5.3015   54.0788 H       1  ZINC000150894060    0.1400
     48 H48         0.9721   -1.7156   62.1540 H       1  ZINC000150894060    0.2100
     49 H49         0.8981    0.2655   63.8697 H       1  ZINC000150894060    0.1600
@<TRIPOS>BOND
     1     1     2    1
     2     1    28    1
     3     1    29    1
     4     1    30    1
     5     2    27    1
     6     2     3    2
     7     3     4    1
     8     3    25    1
     9     4     5    2
    10     4     6   am
    11     6     7    1
    12     6    31    1
    13     7     8    1
    14     7    32    1
    15     7    33    1
    16     8     9    1
    17     8    34    1
    18     8    35    1
    19     9    10    1
    20     9    36    1
    21     9    37    1
    22    10    11   am
    23    10    38    1
    24    11    12    2
    25    11    13    1
    26    13    24   ar
    27    13    14   ar
    28    14    15   ar
    29    14    39    1
    30    15    16   ar
    31    15    40    1
    32    16    17    1
    33    16    23   ar
    34    17    18    1
    35    17    41    1
    36    17    42    1
    37    18    22    1
    38    18    19    1
    39    19    20    2
    40    19    43    1
    41    20    21    1
    42    20    44    1
    43    21    22    2
    44    21    45    1
    45    23    24   ar
    46    23    46    1
    47    24    47    1
    48    25    26    1
    49    26    27    2
    50    26    48    1
    51    27    49    1
@<TRIPOS>SUBSTRUCTURE
     1 ZINC000150894060        1 TEMP              0 ****  ****    0 ROOT


##########                                Name:    ZINC000543625960
##########                DOCK_Rotatable_Bonds:                   8
##########                         Heavy_Atoms:                  29
##########                    Molecular_Weight:             416.544
##########                DOCK_Rotatable_Bonds:                   8
##########                       Formal_Charge:           -0.010001
##########                     HBond_Acceptors:                   8
##########                        HBond_Donors:                   2
##########                         Heavy_Atoms:                  29
##########                          Grid_Score:          -33.546539
##########                     Grid_vdw_energy:          -29.254335
##########                      Grid_es_energy:           -4.292204
##########           Internal_energy_repulsive:           17.331520

@<TRIPOS>MOLECULE
ZINC000543625960
 57 59 1 0 0
SMALL
USER_CHARGES


@<TRIPOS>ATOM
      1 C1        -14.9982   -4.2246   57.7901 C.3     1  ZINC000543625960   -0.1500
      2 C2        -15.3471   -2.8410   57.2382 C.3     1  ZINC000543625960   -0.1300
      3 C3        -14.4136   -1.7963   57.8533 C.3     1  ZINC000543625960    0.1500
      4 H4        -14.6647   -0.8100   57.4631 H       1  ZINC000543625960    0.0800
      5 C5        -12.9648   -2.1329   57.4947 C.3     1  ZINC000543625960   -0.1700
      6 N6        -14.5694   -1.7994   59.3099 N.am    1  ZINC000543625960   -1.1100
      7 S7        -14.8679   -0.3827   60.1138 S.o2    1  ZINC000543625960    2.7000
      8 O8        -16.0033    0.2011   59.4898 O.2     1  ZINC000543625960   -0.9600
      9 O9        -14.8148   -0.6892   61.5003 O.2     1  ZINC000543625960   -0.9500
     10 C10       -13.5128    0.6960   59.7903 C.ar    1  ZINC000543625960   -0.6600
     11 C11       -13.6255    1.6746   58.8201 C.ar    1  ZINC000543625960   -0.0400
     12 C12       -12.5641    2.5232   58.5632 C.ar    1  ZINC000543625960   -0.1200
     13 C13       -11.3879    2.3955   59.2754 C.ar    1  ZINC000543625960   -0.0600
     14 C14       -11.2717    1.4137   60.2509 C.ar    1  ZINC000543625960    0.1500
     15 N15       -10.0811    1.2816   60.9745 N.am    1  ZINC000543625960   -0.6800
     16 C16        -9.9341    1.9198   62.1524 C.2     1  ZINC000543625960    0.7200
     17 O17       -10.8358    2.6103   62.5865 O.2     1  ZINC000543625960   -0.5600
     18 N18        -8.7875    1.7927   62.8493 N.am    1  ZINC000543625960   -0.6300
     19 C19        -8.4943    2.4320   64.1450 C.3     1  ZINC000543625960    0.0900
     20 C20        -7.4117    1.5341   64.7942 C.3     1  ZINC000543625960   -0.1000
     21 H21        -6.8131    2.0987   65.5091 H       1  ZINC000543625960    0.1000
     22 C22        -8.0420    0.3083   65.4584 C.3     1  ZINC000543625960   -0.1500
     23 C23        -6.5650    1.1251   63.5601 C.3     1  ZINC000543625960   -0.1200
     24 C24        -7.6245    0.9885   62.4465 C.3     1  ZINC000543625960    0.2000
     25 H25        -7.9116   -0.0571   62.3343 H       1  ZINC000543625960    0.0900
     26 C26        -7.0711    1.5102   61.1455 C.ar    1  ZINC000543625960   -0.1400
     27 C27        -6.8573    2.8683   60.9680 C.ar    1  ZINC000543625960   -0.0600
     28 C28        -6.3461    3.3028   59.7544 C.ar    1  ZINC000543625960   -0.1700
     29 C29        -6.0686    2.3743   58.7693 C.ar    1  ZINC000543625960    0.1000
     30 N30        -6.2847    1.0894   58.9734 N.ar    1  ZINC000543625960   -0.4800
     31 C31        -6.7647    0.6399   60.1162 C.ar    1  ZINC000543625960    0.1200
     32 C32       -12.3409    0.5667   60.5101 C.ar    1  ZINC000543625960   -0.0500
     33 H33       -15.6633   -4.9688   57.3520 H       1  ZINC000543625960    0.0600
     34 H34       -13.9658   -4.4667   57.5379 H       1  ZINC000543625960    0.0600
     35 H35       -15.1171   -4.2242   58.8736 H       1  ZINC000543625960    0.0500
     36 H36       -15.2283   -2.8414   56.1547 H       1  ZINC000543625960    0.0700
     37 H37       -16.3796   -2.5989   57.4904 H       1  ZINC000543625960    0.0800
     38 H38       -12.8489   -2.1306   56.4108 H       1  ZINC000543625960    0.0700
     39 H39       -12.2997   -1.3887   57.9328 H       1  ZINC000543625960    0.0700
     40 H40       -12.7136   -3.1192   57.8848 H       1  ZINC000543625960    0.0600
     41 H41       -14.4976   -2.6313   59.8036 H       1  ZINC000543625960    0.4200
     42 H42       -14.5441    1.7763   58.2614 H       1  ZINC000543625960    0.1400
     43 H43       -12.6551    3.2864   57.8045 H       1  ZINC000543625960    0.1400
     44 H44       -10.5592    3.0580   59.0739 H       1  ZINC000543625960    0.1400
     45 H45        -9.3617    0.7307   60.6283 H       1  ZINC000543625960    0.4100
     46 H46        -8.1091    3.4402   63.9920 H       1  ZINC000543625960    0.0700
     47 H47        -9.3892    2.4571   64.7668 H       1  ZINC000543625960    0.0800
     48 H48        -8.5989   -0.2618   64.7148 H       1  ZINC000543625960    0.0600
     49 H49        -7.2577   -0.3179   65.8839 H       1  ZINC000543625960    0.0600
     50 H50        -8.7183    0.6314   66.2499 H       1  ZINC000543625960    0.0600
     51 H51        -5.8406    1.9018   63.3148 H       1  ZINC000543625960    0.0800
     52 H52        -6.0659    0.1717   63.7335 H       1  ZINC000543625960    0.0900
     53 H53        -7.0839    3.5713   61.7559 H       1  ZINC000543625960    0.1300
     54 H54        -6.1673    4.3538   59.5811 H       1  ZINC000543625960    0.1400
     55 H55        -5.6706    2.7047   57.8213 H       1  ZINC000543625960    0.1600
     56 H56        -6.9285   -0.4197   60.2465 H       1  ZINC000543625960    0.1400
     57 H57       -12.2536   -0.1977   61.2681 H       1  ZINC000543625960    0.1400
@<TRIPOS>BOND
     1     1     2    1
     2     1    33    1
     3     1    34    1
     4     1    35    1
     5     2     3    1
     6     2    36    1
     7     2    37    1
     8     3     4    1
     9     3     5    1
    10     3     6    1
    11     5    38    1
    12     5    39    1
    13     5    40    1
    14     6     7   am
    15     6    41    1
    16     7     8    2
    17     7     9    2
    18     7    10    1
    19    10    32   ar
    20    10    11   ar
    21    11    12   ar
    22    11    42    1
    23    12    13   ar
    24    12    43    1
    25    13    14   ar
    26    13    44    1
    27    14    15    1
    28    14    32   ar
    29    15    16   am
    30    15    45    1
    31    16    17    2
    32    16    18   am
    33    18    24    1
    34    18    19    1
    35    19    20    1
    36    19    46    1
    37    19    47    1
    38    20    21    1
    39    20    22    1
    40    20    23    1
    41    22    48    1
    42    22    49    1
    43    22    50    1
    44    23    24    1
    45    23    51    1
    46    23    52    1
    47    24    25    1
    48    24    26    1
    49    26    31   ar
    50    26    27   ar
    51    27    28   ar
    52    27    53    1
    53    28    29   ar
    54    28    54    1
    55    29    30   ar
    56    29    55    1
    57    30    31   ar
    58    31    56    1
    59    32    57    1
@<TRIPOS>SUBSTRUCTURE
     1 ZINC000543625960        1 TEMP              0 ****  ****    0 ROOT


##########                                Name:    ZINC000992031068
##########                DOCK_Rotatable_Bonds:                   8
##########                         Heavy_Atoms:                  25
##########                    Molecular_Weight:             342.401
##########                DOCK_Rotatable_Bonds:                   8
##########                       Formal_Charge:           0.0199999
##########                     HBond_Acceptors:                   8
##########                        HBond_Donors:                   2
##########                         Heavy_Atoms:                  25
##########                          Grid_Score:          -33.512978
##########                     Grid_vdw_energy:          -30.589005
##########                      Grid_es_energy:           -2.923973
##########           Internal_energy_repulsive:            9.741848

@<TRIPOS>MOLECULE
ZINC000992031068
 47 49 1 0 0
SMALL
USER_CHARGES


@<TRIPOS>ATOM
      1 C1         -5.8972    2.0654   51.3883 C.3     1  ZINC000992031068   -0.1100
      2 C2         -4.4069    2.2225   51.5482 C.ar    1  ZINC000992031068    0.1800
      3 C3         -3.8856    2.9190   52.6292 C.ar    1  ZINC000992031068   -0.1700
      4 C4         -2.4991    3.0366   52.7331 C.ar    1  ZINC000992031068    0.1300
      5 C5         -1.8870    3.7704   53.8691 C.2     1  ZINC000992031068    0.5700
      6 O6         -2.5536    4.5528   54.5166 O.2     1  ZINC000992031068   -0.5200
      7 N7         -0.5918    3.5687   54.1822 N.am    1  ZINC000992031068   -0.7100
      8 C8          0.0119    4.2915   55.3044 C.3     1  ZINC000992031068    0.1300
      9 C9          1.0806    3.4148   55.9601 C.3     1  ZINC000992031068   -0.1200
     10 C10         1.7118    4.0458   57.2124 C.3     1  ZINC000992031068   -0.1400
     11 C11         1.6727    2.6435   57.8424 C.3     1  ZINC000992031068    0.1200
     12 N12         1.2919    2.6461   59.2571 N.am    1  ZINC000992031068   -0.7200
     13 C13         2.0678    3.2740   60.1627 C.2     1  ZINC000992031068    0.5200
     14 O14         3.0805    3.8381   59.8064 O.2     1  ZINC000992031068   -0.5200
     15 C15         1.6769    3.2752   61.6181 C.3     1  ZINC000992031068   -0.0800
     16 C16         1.1657    1.9105   62.0019 C.2     1  ZINC000992031068    0.1000
     17 C17         1.5519    0.7324   61.4598 C.2     1  ZINC000992031068   -0.2500
     18 C18         0.8388   -0.2887   62.0966 C.2     1  ZINC000992031068    0.0500
     19 N19         0.0528    0.2569   62.9890 N.2     1  ZINC000992031068   -0.2900
     20 N20         0.2449    1.6440   62.9519 N.pl3   1  ZINC000992031068   -0.3700
     21 C21        -0.4395    2.6315   63.7900 C.3     1  ZINC000992031068    0.1000
     22 C22         0.5052    2.3342   56.8907 C.3     1  ZINC000992031068   -0.1400
     23 N23        -1.7346    2.4795   51.7971 N.ar    1  ZINC000992031068   -0.5000
     24 C24        -2.2732    1.8278   50.7888 C.ar    1  ZINC000992031068    0.3000
     25 N25        -3.5792    1.6939   50.6632 N.ar    1  ZINC000992031068   -0.5100
     26 H26        -6.2238    1.1595   51.8988 H       1  ZINC000992031068    0.0900
     27 H27        -6.4021    2.9288   51.8216 H       1  ZINC000992031068    0.0900
     28 H28        -6.1434    1.9943   50.3289 H       1  ZINC000992031068    0.0900
     29 H29        -4.5361    3.3590   53.3706 H       1  ZINC000992031068    0.1600
     30 H30        -0.0591    2.9448   53.6644 H       1  ZINC000992031068    0.4100
     31 H31         0.4696    5.2112   54.9400 H       1  ZINC000992031068    0.0700
     32 H32        -0.7583    4.5344   56.0366 H       1  ZINC000992031068    0.0800
     33 H33         1.8109    3.0330   55.2467 H       1  ZINC000992031068    0.1000
     34 H34         2.7212    4.4234   57.0496 H       1  ZINC000992031068    0.0800
     35 H35         1.0644    4.7669   57.7115 H       1  ZINC000992031068    0.0900
     36 H36         2.5666    2.0516   57.6459 H       1  ZINC000992031068    0.1200
     37 H37         0.4813    2.1960   59.5419 H       1  ZINC000992031068    0.4000
     38 H38         2.5461    3.5222   62.2277 H       1  ZINC000992031068    0.1200
     39 H39         0.8946    4.0160   61.7836 H       1  ZINC000992031068    0.1100
     40 H40         2.2814    0.6033   60.6740 H       1  ZINC000992031068    0.1500
     41 H41         0.9223   -1.3450   61.8873 H       1  ZINC000992031068    0.1800
     42 H42         0.1331    2.7922   64.7035 H       1  ZINC000992031068    0.0800
     43 H43        -0.5266    3.5720   63.2458 H       1  ZINC000992031068    0.0800
     44 H44        -1.4342    2.2654   64.0443 H       1  ZINC000992031068    0.0900
     45 H45        -0.4722    2.5874   57.3018 H       1  ZINC000992031068    0.0900
     46 H46         0.5405    1.3301   56.4681 H       1  ZINC000992031068    0.0800
     47 H47        -1.6269    1.3864   50.0447 H       1  ZINC000992031068    0.2100
@<TRIPOS>BOND
     1     1     2    1
     2     1    26    1
     3     1    27    1
     4     1    28    1
     5     2    25   ar
     6     2     3   ar
     7     3     4   ar
     8     3    29    1
     9     4     5    1
    10     4    23   ar
    11     5     6    2
    12     5     7   am
    13     7     8    1
    14     7    30    1
    15     8     9    1
    16     8    31    1
    17     8    32    1
    18     9    22    1
    19     9    10    1
    20     9    33    1
    21    10    11    1
    22    10    34    1
    23    10    35    1
    24    11    12    1
    25    11    22    1
    26    11    36    1
    27    12    13   am
    28    12    37    1
    29    13    14    2
    30    13    15    1
    31    15    16    1
    32    15    38    1
    33    15    39    1
    34    16    20    1
    35    16    17    2
    36    17    18    1
    37    17    40    1
    38    18    19    2
    39    18    41    1
    40    19    20    1
    41    20    21    1
    42    21    42    1
    43    21    43    1
    44    21    44    1
    45    22    45    1
    46    22    46    1
    47    23    24   ar
    48    24    25   ar
    49    24    47    1
@<TRIPOS>SUBSTRUCTURE
     1 ZINC000992031068        1 TEMP              0 ****  ****    0 ROOT


##########                                Name:    ZINC000011620562
##########                DOCK_Rotatable_Bonds:                   9
##########                         Heavy_Atoms:                  29
##########                    Molecular_Weight:             417.448
##########                DOCK_Rotatable_Bonds:                   9
##########                       Formal_Charge:           0.0299999
##########                     HBond_Acceptors:                  12
##########                        HBond_Donors:                   1
##########                         Heavy_Atoms:                  29
##########                          Grid_Score:          -33.447731
##########                     Grid_vdw_energy:          -31.547806
##########                      Grid_es_energy:           -1.899924
##########           Internal_energy_repulsive:           10.832314

@<TRIPOS>MOLECULE
ZINC000011620562
 48 50 1 0 0
SMALL
USER_CHARGES


@<TRIPOS>ATOM
      1 C1        -17.1485   -2.1762   54.8973 C.3     1  ZINC000011620562    0.0400
      2 O2        -16.1979   -3.0814   55.5179 O.3     1  ZINC000011620562   -0.3500
      3 C3        -16.3124   -3.2714   56.8418 C.2     1  ZINC000011620562    0.4600
      4 O4        -17.1780   -2.7000   57.4615 O.2     1  ZINC000011620562   -0.5000
      5 C5        -15.3613   -4.1976   57.5551 C.3     1  ZINC000011620562    0.1300
      6 N6        -14.1934   -3.4406   58.0123 N.am    1  ZINC000011620562   -0.7200
      7 C7        -14.3373   -2.4766   58.9433 C.2     1  ZINC000011620562    0.5400
      8 O8        -15.4335   -2.2370   59.4035 O.2     1  ZINC000011620562   -0.5200
      9 C9        -13.1362   -1.6967   59.4123 C.3     1  ZINC000011620562   -0.1600
     10 S10       -12.2943   -0.9692   57.9848 S.3     1  ZINC000011620562    0.1400
     11 C11       -10.6970   -0.6976   58.6773 C.2     1  ZINC000011620562    0.2100
     12 N12       -10.3725   -0.7769   59.9501 N.2     1  ZINC000011620562   -0.3400
     13 N13        -9.1247   -0.5207   60.1129 N.2     1  ZINC000011620562   -0.0300
     14 N14        -8.5678   -0.2631   58.9793 N.2     1  ZINC000011620562   -0.0800
     15 N15        -9.5693   -0.3733   57.9988 N.pl3   1  ZINC000011620562   -0.2600
     16 C16        -9.4319   -0.1809   56.6107 C.2     1  ZINC000011620562   -0.1300
     17 C17        -9.4544   -1.1499   55.6675 C.2     1  ZINC000011620562    0.2500
     18 C18        -9.6309   -2.6246   55.9223 C.3     1  ZINC000011620562   -0.1100
     19 N19        -9.2895   -0.5626   54.4421 N.pl3   1  ZINC000011620562   -0.3700
     20 C20        -9.2549   -1.2593   53.1538 C.3     1  ZINC000011620562    0.0900
     21 N21        -9.1603    0.8194   54.6317 N.am    1  ZINC000011620562   -0.3600
     22 C22        -8.9752    1.7752   53.6277 C.ar    1  ZINC000011620562    0.1400
     23 C23        -7.6937    2.0901   53.1943 C.ar    1  ZINC000011620562   -0.1300
     24 C24        -7.5145    3.0339   52.2022 C.ar    1  ZINC000011620562   -0.1000
     25 C25        -8.6091    3.6652   51.6404 C.ar    1  ZINC000011620562   -0.1100
     26 C26        -9.8862    3.3543   52.0700 C.ar    1  ZINC000011620562   -0.1000
     27 C27       -10.0728    2.4072   53.0576 C.ar    1  ZINC000011620562   -0.1000
     28 C28        -9.2515    1.0643   55.9547 C.2     1  ZINC000011620562    0.5500
     29 O29        -9.1839    2.1558   56.4902 O.2     1  ZINC000011620562   -0.5000
     30 H30       -17.0533   -1.1867   55.3447 H       1  ZINC000011620562    0.0700
     31 H31       -16.9451   -2.1127   53.8283 H       1  ZINC000011620562    0.1100
     32 H32       -18.1607   -2.5495   55.0531 H       1  ZINC000011620562    0.0700
     33 H33       -15.8638   -4.6439   58.4133 H       1  ZINC000011620562    0.1200
     34 H34       -15.0399   -4.9844   56.8726 H       1  ZINC000011620562    0.1200
     35 H35       -13.3165   -3.6332   57.6451 H       1  ZINC000011620562    0.4200
     36 H36       -13.4587   -0.9036   60.0870 H       1  ZINC000011620562    0.1400
     37 H37       -12.4519   -2.3639   59.9366 H       1  ZINC000011620562    0.1400
     38 H38        -9.7387   -2.7981   56.9930 H       1  ZINC000011620562    0.1000
     39 H39       -10.5228   -2.9785   55.4052 H       1  ZINC000011620562    0.1000
     40 H40        -8.7587   -3.1640   55.5528 H       1  ZINC000011620562    0.1000
     41 H41        -9.3457   -2.3329   53.3189 H       1  ZINC000011620562    0.1100
     42 H42       -10.0821   -0.9159   52.5327 H       1  ZINC000011620562    0.0900
     43 H43        -8.3110   -1.0476   52.6515 H       1  ZINC000011620562    0.0900
     44 H44        -6.8384    1.5976   53.6329 H       1  ZINC000011620562    0.1300
     45 H45        -6.5182    3.2796   51.8650 H       1  ZINC000011620562    0.1300
     46 H46        -8.4661    4.4030   50.8647 H       1  ZINC000011620562    0.1300
     47 H47       -10.7389    3.8497   51.6296 H       1  ZINC000011620562    0.1400
     48 H48       -11.0705    2.1646   53.3924 H       1  ZINC000011620562    0.1400
@<TRIPOS>BOND
     1     1     2    1
     2     1    30    1
     3     1    31    1
     4     1    32    1
     5     2     3    1
     6     3     4    2
     7     3     5    1
     8     5     6    1
     9     5    33    1
    10     5    34    1
    11     6     7   am
    12     6    35    1
    13     7     8    2
    14     7     9    1
    15     9    10    1
    16     9    36    1
    17     9    37    1
    18    10    11    1
    19    11    15    1
    20    11    12    2
    21    12    13    1
    22    13    14    2
    23    14    15    1
    24    15    16    1
    25    16    28    1
    26    16    17    2
    27    17    18    1
    28    17    19    1
    29    18    38    1
    30    18    39    1
    31    18    40    1
    32    19    20    1
    33    19    21    1
    34    20    41    1
    35    20    42    1
    36    20    43    1
    37    21    22    1
    38    21    28   am
    39    22    27   ar
    40    22    23   ar
    41    23    24   ar
    42    23    44    1
    43    24    25   ar
    44    24    45    1
    45    25    26   ar
    46    25    46    1
    47    26    27   ar
    48    26    47    1
    49    27    48    1
    50    28    29    2
@<TRIPOS>SUBSTRUCTURE
     1 ZINC000011620562        1 TEMP              0 ****  ****    0 ROOT


##########                                Name:    ZINC000494558165
##########                DOCK_Rotatable_Bonds:                  11
##########                         Heavy_Atoms:                  28
##########                    Molecular_Weight:             409.506
##########                DOCK_Rotatable_Bonds:                  11
##########                       Formal_Charge:        -6.55651e-07
##########                     HBond_Acceptors:                   9
##########                        HBond_Donors:                   3
##########                         Heavy_Atoms:                  28
##########                          Grid_Score:          -33.362038
##########                     Grid_vdw_energy:          -31.975798
##########                      Grid_es_energy:           -1.386239
##########           Internal_energy_repulsive:           30.600975

@<TRIPOS>MOLECULE
ZINC000494558165
 55 57 1 0 0
SMALL
USER_CHARGES


@<TRIPOS>ATOM
      1 O1         -6.8526   -0.1293   58.8874 O.2     1  ZINC000494558165   -0.4400
      2 C2         -7.4116    0.9455   58.8442 C.2     1  ZINC000494558165    0.5100
      3 C3         -7.8384    1.5203   57.5181 C.3     1  ZINC000494558165    0.0300
      4 N4         -8.9509    0.7283   56.9765 N.3     1  ZINC000494558165   -0.5000
      5 C5        -10.0474    0.6271   57.9488 C.3     1  ZINC000494558165    0.0500
      6 C6        -10.0877   -0.7892   58.5263 C.3     1  ZINC000494558165   -0.1100
      7 C7        -11.4694   -1.0560   59.1265 C.3     1  ZINC000494558165    0.0800
      8 O8        -11.4754   -2.3385   59.7568 O.3     1  ZINC000494558165   -0.5700
      9 C9         -9.4254    1.2887   55.7041 C.3     1  ZINC000494558165    0.1200
     10 H10        -9.9661    2.2188   55.8796 H       1  ZINC000494558165    0.1000
     11 C11       -10.3301    0.2724   54.9756 C.3     1  ZINC000494558165   -0.1200
     12 C12        -9.3281   -0.4722   54.0680 C.3     1  ZINC000494558165   -0.0900
     13 C13        -8.2043    0.5127   53.8269 C.ar    1  ZINC000494558165   -0.0900
     14 C14        -7.2115    0.5228   52.8619 C.ar    1  ZINC000494558165   -0.1100
     15 C15        -6.2773    1.5402   52.8361 C.ar    1  ZINC000494558165   -0.1100
     16 C16        -6.3333    2.5519   53.7760 C.ar    1  ZINC000494558165   -0.1200
     17 C17        -7.3232    2.5437   54.7396 C.ar    1  ZINC000494558165   -0.1000
     18 C18        -8.2599    1.5273   54.7681 C.ar    1  ZINC000494558165   -0.1300
     19 N19        -7.6566    1.6238   59.9828 N.am    1  ZINC000494558165   -0.6900
     20 C20        -7.2749    1.1098   61.1689 C.2     1  ZINC000494558165    0.7000
     21 O21        -6.7087    0.0352   61.2115 O.2     1  ZINC000494558165   -0.5200
     22 N22        -7.5213    1.7873   62.3076 N.am    1  ZINC000494558165   -0.7300
     23 C23        -7.1050    1.2294   63.5966 C.3     1  ZINC000494558165    0.1700
     24 H24        -6.2169    0.6124   63.4592 H       1  ZINC000494558165    0.1200
     25 C25        -6.7937    2.3724   64.5788 C.3     1  ZINC000494558165   -0.1400
     26 C26        -6.6890    1.7314   65.9866 C.3     1  ZINC000494558165   -0.5800
     27 S27        -8.0961    0.5570   65.9958 S.o2    1  ZINC000494558165    2.4000
     28 O28        -7.6764   -0.6765   66.5630 O.2     1  ZINC000494558165   -0.9300
     29 O29        -9.2522    1.2112   66.5005 O.2     1  ZINC000494558165   -0.9300
     30 C30        -8.2450    0.3736   64.1836 C.3     1  ZINC000494558165   -0.6200
     31 H31        -8.1606    2.5524   57.6562 H       1  ZINC000494558165    0.0700
     32 H32        -6.9996    1.4914   56.8228 H       1  ZINC000494558165    0.1200
     33 H33        -9.8862    1.3435   58.7542 H       1  ZINC000494558165    0.0900
     34 H34       -10.9936    0.8444   57.4532 H       1  ZINC000494558165    0.0400
     35 H35        -9.8904   -1.5107   57.7334 H       1  ZINC000494558165    0.0700
     36 H36        -9.3292   -0.8864   59.3030 H       1  ZINC000494558165    0.0800
     37 H37       -11.6997   -0.2875   59.8644 H       1  ZINC000494558165    0.0500
     38 H38       -12.2191   -1.0365   58.3355 H       1  ZINC000494558165    0.0400
     39 H39       -11.3385   -3.0769   59.1476 H       1  ZINC000494558165    0.3800
     40 H40       -10.7929   -0.4129   55.6856 H       1  ZINC000494558165    0.0900
     41 H41       -11.0862    0.7840   54.3800 H       1  ZINC000494558165    0.0800
     42 H42        -8.9499   -1.3616   54.5720 H       1  ZINC000494558165    0.0800
     43 H43        -9.8018   -0.7438   53.1247 H       1  ZINC000494558165    0.0800
     44 H44        -7.1669   -0.2676   52.1273 H       1  ZINC000494558165    0.1200
     45 H45        -5.5044    1.5453   52.0818 H       1  ZINC000494558165    0.1300
     46 H46        -5.6036    3.3479   53.7575 H       1  ZINC000494558165    0.1200
     47 H47        -7.3661    3.3344   55.4740 H       1  ZINC000494558165    0.1200
     48 H48        -8.1075    2.4820   59.9487 H       1  ZINC000494558165    0.4100
     49 H49        -7.9743    2.6444   62.2736 H       1  ZINC000494558165    0.4000
     50 H50        -5.8486    2.8461   64.3130 H       1  ZINC000494558165    0.1100
     51 H51        -7.5980    3.1080   64.5624 H       1  ZINC000494558165    0.0900
     52 H52        -5.7428    1.2024   66.1014 H       1  ZINC000494558165    0.1400
     53 H53        -6.8090    2.4851   66.7648 H       1  ZINC000494558165    0.1400
     54 H54        -9.2120    0.7444   63.8438 H       1  ZINC000494558165    0.1500
     55 H55        -8.1169   -0.6701   63.8970 H       1  ZINC000494558165    0.1500
@<TRIPOS>BOND
     1     1     2    2
     2     2     3    1
     3     2    19   am
     4     3     4    1
     5     3    31    1
     6     3    32    1
     7     4     5    1
     8     4     9    1
     9     5     6    1
    10     5    33    1
    11     5    34    1
    12     6     7    1
    13     6    35    1
    14     6    36    1
    15     7     8    1
    16     7    37    1
    17     7    38    1
    18     8    39    1
    19     9    10    1
    20     9    18    1
    21     9    11    1
    22    11    12    1
    23    11    40    1
    24    11    41    1
    25    12    13    1
    26    12    42    1
    27    12    43    1
    28    13    18   ar
    29    13    14   ar
    30    14    15   ar
    31    14    44    1
    32    15    16   ar
    33    15    45    1
    34    16    17   ar
    35    16    46    1
    36    17    18   ar
    37    17    47    1
    38    19    20   am
    39    19    48    1
    40    20    21    2
    41    20    22   am
    42    22    23    1
    43    22    49    1
    44    23    24    1
    45    23    30    1
    46    23    25    1
    47    25    26    1
    48    25    50    1
    49    25    51    1
    50    26    27    1
    51    26    52    1
    52    26    53    1
    53    27    28    2
    54    27    29    2
    55    27    30    1
    56    30    54    1
    57    30    55    1
@<TRIPOS>SUBSTRUCTURE
     1 ZINC000494558165        1 TEMP              0 ****  ****    0 ROOT


##########                                Name:    ZINC000432058199
##########                DOCK_Rotatable_Bonds:                   5
##########                         Heavy_Atoms:                  30
##########                    Molecular_Weight:             406.441
##########                DOCK_Rotatable_Bonds:                   5
##########                       Formal_Charge:        -4.02331e-07
##########                     HBond_Acceptors:                   8
##########                        HBond_Donors:                   1
##########                         Heavy_Atoms:                  30
##########                          Grid_Score:          -33.344421
##########                     Grid_vdw_energy:          -31.865189
##########                      Grid_es_energy:           -1.479233
##########           Internal_energy_repulsive:           18.325048

@<TRIPOS>MOLECULE
ZINC000432058199
 52 55 1 0 0
SMALL
USER_CHARGES


@<TRIPOS>ATOM
      1 C1         -9.5544    1.9018   66.1254 C.3     1  ZINC000432058199    0.0300
      2 O2        -10.0019    1.2648   64.9270 O.3     1  ZINC000432058199   -0.3100
      3 C3         -9.0922    1.1218   63.9276 C.ar    1  ZINC000432058199    0.1300
      4 C4         -7.7875    1.5591   64.1091 C.ar    1  ZINC000432058199   -0.1900
      5 C5         -6.8589    1.4155   63.0951 C.ar    1  ZINC000432058199   -0.0800
      6 C6         -7.2241    0.8366   61.8965 C.ar    1  ZINC000432058199   -0.1100
      7 C7         -8.5320    0.3944   61.7063 C.ar    1  ZINC000432058199    0.0100
      8 C8         -8.9272   -0.2290   60.4185 C.2     1  ZINC000432058199    0.2100
      9 N9         -8.1386   -0.4925   59.4095 N.2     1  ZINC000432058199   -0.3700
     10 O10        -8.7708   -1.0015   58.5082 O.3     1  ZINC000432058199    0.1200
     11 C11       -10.0556   -1.1170   58.8587 C.2     1  ZINC000432058199    0.1600
     12 C12       -11.1636   -1.6984   58.0190 C.3     1  ZINC000432058199    0.2500
     13 H13       -12.1216   -1.3047   58.3584 H       1  ZINC000432058199    0.1500
     14 C14       -11.1612   -3.2223   58.1557 C.3     1  ZINC000432058199   -0.1700
     15 N15       -10.9555   -1.3338   56.6154 N.am    1  ZINC000432058199   -0.5800
     16 C16       -11.7724   -0.5373   55.9166 C.2     1  ZINC000432058199    0.7000
     17 O17       -12.7776   -0.0311   56.3753 O.2     1  ZINC000432058199   -0.5100
     18 N18       -11.3568   -0.3593   54.6497 N.am    1  ZINC000432058199   -0.7200
     19 C19       -10.1137   -1.1357   54.5009 C.3     1  ZINC000432058199    0.1400
     20 H20       -10.2325   -1.9082   53.7412 H       1  ZINC000432058199    0.1400
     21 C21        -8.9601   -0.2290   54.1569 C.ar    1  ZINC000432058199   -0.1000
     22 C22        -8.7474    0.9259   54.8864 C.ar    1  ZINC000432058199   -0.1000
     23 C23        -7.6894    1.7576   54.5708 C.ar    1  ZINC000432058199   -0.0800
     24 C24        -7.4577    3.0167   55.3656 C.3     1  ZINC000432058199   -0.1200
     25 C25        -6.8434    1.4340   53.5265 C.ar    1  ZINC000432058199   -0.1100
     26 C26        -7.0560    0.2789   52.7974 C.ar    1  ZINC000432058199   -0.0800
     27 C27        -6.1341   -0.0736   51.6585 C.3     1  ZINC000432058199   -0.1200
     28 C28        -8.1115   -0.5549   53.1156 C.ar    1  ZINC000432058199   -0.1000
     29 C29        -9.9143   -1.7547   55.8703 C.2     1  ZINC000432058199    0.5300
     30 O30        -9.0097   -2.4818   56.2206 O.2     1  ZINC000432058199   -0.4500
     31 N31       -10.1691   -0.6359   60.0716 N.2     1  ZINC000432058199   -0.4500
     32 C32        -9.4656    0.5344   62.7297 C.ar    1  ZINC000432058199   -0.1200
     33 H33       -10.3767    1.9516   66.8392 H       1  ZINC000432058199    0.1000
     34 H34        -8.7333    1.3289   66.5565 H       1  ZINC000432058199    0.0600
     35 H35        -9.2119    2.9105   65.8946 H       1  ZINC000432058199    0.0600
     36 H36        -7.4970    2.0131   65.0450 H       1  ZINC000432058199    0.1400
     37 H37        -5.8449    1.7578   63.2409 H       1  ZINC000432058199    0.1400
     38 H38        -6.4965    0.7264   61.1059 H       1  ZINC000432058199    0.1400
     39 H39       -10.2033   -3.6161   57.8162 H       1  ZINC000432058199    0.0900
     40 H40       -11.3161   -3.4936   59.2000 H       1  ZINC000432058199    0.0900
     41 H41       -11.9628   -3.6428   57.5483 H       1  ZINC000432058199    0.0900
     42 H42       -11.7912    0.1755   53.9669 H       1  ZINC000432058199    0.4500
     43 H43        -9.4081    1.1784   55.7026 H       1  ZINC000432058199    0.1200
     44 H44        -6.7989    2.7997   56.2065 H       1  ZINC000432058199    0.0700
     45 H45        -6.9957    3.7697   54.7271 H       1  ZINC000432058199    0.0700
     46 H46        -8.4109    3.3917   55.7383 H       1  ZINC000432058199    0.0700
     47 H47        -6.0169    2.0838   53.2799 H       1  ZINC000432058199    0.1300
     48 H48        -5.3090   -0.6792   52.0331 H       1  ZINC000432058199    0.0700
     49 H49        -6.6856   -0.6366   50.9056 H       1  ZINC000432058199    0.0700
     50 H50        -5.7410    0.8403   51.2130 H       1  ZINC000432058199    0.0700
     51 H51        -8.2775   -1.4573   52.5460 H       1  ZINC000432058199    0.1300
     52 H52       -10.4804    0.1933   62.5872 H       1  ZINC000432058199    0.1400
@<TRIPOS>BOND
     1     1     2    1
     2     1    33    1
     3     1    34    1
     4     1    35    1
     5     2     3    1
     6     3    32   ar
     7     3     4   ar
     8     4     5   ar
     9     4    36    1
    10     5     6   ar
    11     5    37    1
    12     6     7   ar
    13     6    38    1
    14     7     8    1
    15     7    32   ar
    16     8    31    1
    17     8     9    2
    18     9    10    1
    19    10    11    1
    20    11    12    1
    21    11    31    2
    22    12    13    1
    23    12    14    1
    24    12    15    1
    25    14    39    1
    26    14    40    1
    27    14    41    1
    28    15    29   am
    29    15    16   am
    30    16    17    2
    31    16    18   am
    32    18    19    1
    33    18    42    1
    34    19    20    1
    35    19    21    1
    36    19    29    1
    37    21    28   ar
    38    21    22   ar
    39    22    23   ar
    40    22    43    1
    41    23    24    1
    42    23    25   ar
    43    24    44    1
    44    24    45    1
    45    24    46    1
    46    25    26   ar
    47    25    47    1
    48    26    27    1
    49    26    28   ar
    50    27    48    1
    51    27    49    1
    52    27    50    1
    53    28    51    1
    54    29    30    2
    55    32    52    1
@<TRIPOS>SUBSTRUCTURE
     1 ZINC000432058199        1 TEMP              0 ****  ****    0 ROOT


##########                                Name:    ZINC000004598904
##########                DOCK_Rotatable_Bonds:                  13
##########                         Heavy_Atoms:                  30
##########                    Molecular_Weight:             412.442
##########                DOCK_Rotatable_Bonds:                  13
##########                       Formal_Charge:          -0.0300005
##########                     HBond_Acceptors:                   8
##########                        HBond_Donors:                   2
##########                         Heavy_Atoms:                  30
##########                          Grid_Score:          -33.329391
##########                     Grid_vdw_energy:          -32.623470
##########                      Grid_es_energy:           -0.705921
##########           Internal_energy_repulsive:            9.415356

@<TRIPOS>MOLECULE
ZINC000004598904
 54 55 1 0 0
SMALL
USER_CHARGES


@<TRIPOS>ATOM
      1 C1          4.8001    1.0075   58.6756 C.3     1  ZINC000004598904   -0.1500
      2 C2          4.6463    2.1270   57.6441 C.3     1  ZINC000004598904    0.0600
      3 O3          3.2510    2.2424   57.2594 O.3     1  ZINC000004598904   -0.3500
      4 C4          2.9429    3.1894   56.3516 C.2     1  ZINC000004598904    0.5100
      5 O5          3.8165    3.8990   55.8937 O.2     1  ZINC000004598904   -0.5100
      6 C6          1.5457    3.3646   55.9141 C.ar    1  ZINC000004598904   -0.1500
      7 C7          0.5385    2.5520   56.4434 C.ar    1  ZINC000004598904   -0.0400
      8 C8         -0.7646    2.7184   56.0325 C.ar    1  ZINC000004598904   -0.1400
      9 C9         -1.0802    3.6937   55.0916 C.ar    1  ZINC000004598904    0.1800
     10 N10        -2.4012    3.8596   54.6782 N.am    1  ZINC000004598904   -0.6700
     11 C11        -2.7578    3.5421   53.4178 C.2     1  ZINC000004598904    0.5200
     12 O12        -1.9295    3.1120   52.6434 O.2     1  ZINC000004598904   -0.5100
     13 C13        -4.1858    3.7215   52.9710 C.3     1  ZINC000004598904   -0.1300
     14 C14        -4.5555    2.6101   51.9865 C.3     1  ZINC000004598904   -0.1300
     15 C15        -5.9606    2.1409   52.2630 C.2     1  ZINC000004598904    0.5200
     16 O16        -6.8941    2.6411   51.6721 O.2     1  ZINC000004598904   -0.5100
     17 N17        -6.1799    1.1655   53.1668 N.am    1  ZINC000004598904   -0.6700
     18 C18        -7.4799    0.7316   53.4225 C.ar    1  ZINC000004598904    0.1800
     19 C19        -8.3055    1.4708   54.2641 C.ar    1  ZINC000004598904   -0.1400
     20 C20        -9.5896    1.0453   54.5187 C.ar    1  ZINC000004598904   -0.0300
     21 C21       -10.0641   -0.1307   53.9304 C.ar    1  ZINC000004598904   -0.1500
     22 C22       -11.4393   -0.5895   54.2005 C.2     1  ZINC000004598904    0.5100
     23 O23       -12.3422   -0.2777   53.4497 O.2     1  ZINC000004598904   -0.5100
     24 O24       -11.6945   -1.3546   55.2799 O.3     1  ZINC000004598904   -0.3600
     25 C25       -10.5986   -2.1568   55.7934 C.3     1  ZINC000004598904    0.0600
     26 C26       -10.9961   -2.7595   57.1424 C.3     1  ZINC000004598904   -0.1500
     27 C27        -9.2319   -0.8707   53.0850 C.ar    1  ZINC000004598904   -0.0400
     28 C28        -7.9506   -0.4367   52.8310 C.ar    1  ZINC000004598904   -0.1600
     29 C29        -0.0804    4.5042   54.5626 C.ar    1  ZINC000004598904   -0.1600
     30 C30         1.2241    4.3474   54.9731 C.ar    1  ZINC000004598904   -0.0300
     31 H31         4.4635    0.0656   58.2424 H       1  ZINC000004598904    0.0700
     32 H32         5.8476    0.9209   58.9644 H       1  ZINC000004598904    0.0800
     33 H33         4.1987    1.2385   59.5548 H       1  ZINC000004598904    0.0700
     34 H34         4.9829    3.0690   58.0773 H       1  ZINC000004598904    0.0700
     35 H35         5.2477    1.8961   56.7648 H       1  ZINC000004598904    0.0700
     36 H36         0.7829    1.7945   57.1734 H       1  ZINC000004598904    0.1400
     37 H37        -1.5430    2.0908   56.4406 H       1  ZINC000004598904    0.1400
     38 H38        -3.0637    4.2036   55.2976 H       1  ZINC000004598904    0.4200
     39 H39        -4.8461    3.6742   53.8369 H       1  ZINC000004598904    0.1100
     40 H40        -4.2949    4.6901   52.4831 H       1  ZINC000004598904    0.1100
     41 H41        -4.4939    2.9921   50.9675 H       1  ZINC000004598904    0.1100
     42 H42        -3.8641    1.7757   52.1041 H       1  ZINC000004598904    0.1100
     43 H43        -5.4332    0.7655   53.6394 H       1  ZINC000004598904    0.4200
     44 H44        -7.9383    2.3793   54.7182 H       1  ZINC000004598904    0.1400
     45 H45       -10.2296    1.6192   55.1726 H       1  ZINC000004598904    0.1400
     46 H46       -10.3740   -2.9582   55.0895 H       1  ZINC000004598904    0.0700
     47 H47        -9.7174   -1.5284   55.9217 H       1  ZINC000004598904    0.0700
     48 H48       -10.1734   -3.3618   57.5278 H       1  ZINC000004598904    0.0800
     49 H49       -11.2207   -1.9581   57.8463 H       1  ZINC000004598904    0.0700
     50 H50       -11.8774   -3.3880   57.0140 H       1  ZINC000004598904    0.0700
     51 H51        -9.5951   -1.7798   52.6291 H       1  ZINC000004598904    0.1400
     52 H52        -7.3073   -1.0075   52.1777 H       1  ZINC000004598904    0.1400
     53 H53        -0.3289    5.2602   53.8326 H       1  ZINC000004598904    0.1400
     54 H54         1.9995    4.9767   54.5622 H       1  ZINC000004598904    0.1400
@<TRIPOS>BOND
     1     1     2    1
     2     1    31    1
     3     1    32    1
     4     1    33    1
     5     2     3    1
     6     2    34    1
     7     2    35    1
     8     3     4    1
     9     4     5    2
    10     4     6    1
    11     6    30   ar
    12     6     7   ar
    13     7     8   ar
    14     7    36    1
    15     8     9   ar
    16     8    37    1
    17     9    10    1
    18     9    29   ar
    19    10    11   am
    20    10    38    1
    21    11    12    2
    22    11    13    1
    23    13    14    1
    24    13    39    1
    25    13    40    1
    26    14    15    1
    27    14    41    1
    28    14    42    1
    29    15    16    2
    30    15    17   am
    31    17    18    1
    32    17    43    1
    33    18    28   ar
    34    18    19   ar
    35    19    20   ar
    36    19    44    1
    37    20    21   ar
    38    20    45    1
    39    21    22    1
    40    21    27   ar
    41    22    23    2
    42    22    24    1
    43    24    25    1
    44    25    26    1
    45    25    46    1
    46    25    47    1
    47    26    48    1
    48    26    49    1
    49    26    50    1
    50    27    28   ar
    51    27    51    1
    52    28    52    1
    53    29    30   ar
    54    29    53    1
    55    30    54    1
@<TRIPOS>SUBSTRUCTURE
     1 ZINC000004598904        1 TEMP              0 ****  ****    0 ROOT


##########                                Name:    ZINC001169875900
##########                DOCK_Rotatable_Bonds:                   9
##########                         Heavy_Atoms:                  24
##########                    Molecular_Weight:             329.399
##########                DOCK_Rotatable_Bonds:                   9
##########                       Formal_Charge:          -0.0500002
##########                     HBond_Acceptors:                   6
##########                        HBond_Donors:                   1
##########                         Heavy_Atoms:                  24
##########                          Grid_Score:          -33.247967
##########                     Grid_vdw_energy:          -33.222588
##########                      Grid_es_energy:           -0.025377
##########           Internal_energy_repulsive:            7.348019

@<TRIPOS>MOLECULE
ZINC001169875900
 47 48 1 0 0
SMALL
USER_CHARGES


@<TRIPOS>ATOM
      1 C1        -13.3749   -0.0889   52.6251 C.3     1  ZINC001169875900   -0.1500
      2 C2        -12.0063    0.1932   53.2484 C.3     1  ZINC001169875900   -0.1300
      3 C3        -11.5790   -1.0018   54.1030 C.3     1  ZINC001169875900    0.0700
      4 O4        -10.4086   -0.6603   54.8482 O.3     1  ZINC001169875900   -0.3100
      5 C5         -9.2864   -0.3773   54.1381 C.ar    1  ZINC001169875900    0.2700
      6 N6         -8.8604   -1.2305   53.2226 N.ar    1  ZINC001169875900   -0.5000
      7 C7         -7.7719   -1.0005   52.5129 C.ar    1  ZINC001169875900    0.0600
      8 C8         -7.0346    0.1587   52.7015 C.ar    1  ZINC001169875900    0.1400
      9 N9         -5.8807    0.3960   51.9455 N.pl3   1  ZINC001169875900   -0.7400
     10 C10        -5.6883    1.6919   51.2899 C.3     1  ZINC001169875900    0.1800
     11 C11        -4.3459    2.2566   51.6777 C.ar    1  ZINC001169875900    0.1000
     12 C12        -4.2533    3.1163   52.7607 C.ar    1  ZINC001169875900   -0.1200
     13 C13        -3.0166    3.6335   53.1139 C.ar    1  ZINC001169875900   -0.0800
     14 C14        -1.9091    3.2689   52.3648 C.ar    1  ZINC001169875900   -0.1000
     15 C15        -2.0764    2.3998   51.2885 C.ar    1  ZINC001169875900    0.0900
     16 C16        -0.9032    2.0004   50.4781 C.2     1  ZINC001169875900    0.5200
     17 O17        -1.0554    1.3210   49.4833 O.2     1  ZINC001169875900   -0.5000
     18 O18         0.3326    2.3909   50.8443 O.3     1  ZINC001169875900   -0.3300
     19 C19         1.4409    1.9149   50.0360 C.3     1  ZINC001169875900    0.0600
     20 C20         2.7546    2.4592   50.6008 C.3     1  ZINC001169875900   -0.1500
     21 N21        -3.2779    1.9228   50.9870 N.ar    1  ZINC001169875900   -0.4200
     22 C22        -7.4571    1.0843   53.6542 C.ar    1  ZINC001169875900   -0.1200
     23 C23        -8.6030    0.8076   54.3783 C.ar    1  ZINC001169875900   -0.1000
     24 C24        -9.1001    1.7773   55.4194 C.3     1  ZINC001169875900   -0.1000
     25 H25       -14.1077   -0.2509   53.4156 H       1  ZINC001169875900    0.0600
     26 H26       -13.6793    0.7624   52.0164 H       1  ZINC001169875900    0.0600
     27 H27       -13.3126   -0.9792   51.9994 H       1  ZINC001169875900    0.0600
     28 H28       -12.0686    1.0835   53.8741 H       1  ZINC001169875900    0.0700
     29 H29       -11.2735    0.3551   52.4579 H       1  ZINC001169875900    0.0700
     30 H30       -11.3626   -1.8522   53.4562 H       1  ZINC001169875900    0.0600
     31 H31       -12.3838   -1.2635   54.7900 H       1  ZINC001169875900    0.0600
     32 H32        -7.4515   -1.7234   51.7771 H       1  ZINC001169875900    0.1500
     33 H33        -5.2085   -0.2975   51.8558 H       1  ZINC001169875900    0.4000
     34 H34        -5.7289    1.5616   50.2084 H       1  ZINC001169875900    0.0800
     35 H35        -6.4753    2.3780   51.6030 H       1  ZINC001169875900    0.0800
     36 H36        -5.1360    3.3809   53.3238 H       1  ZINC001169875900    0.1500
     37 H37        -2.9184    4.3051   53.9540 H       1  ZINC001169875900    0.1500
     38 H38        -0.9303    3.6531   52.6115 H       1  ZINC001169875900    0.1500
     39 H39         1.4616    0.8253   50.0535 H       1  ZINC001169875900    0.0700
     40 H40         1.3162    2.2595   49.0095 H       1  ZINC001169875900    0.0700
     41 H41         2.7338    3.5488   50.5833 H       1  ZINC001169875900    0.0700
     42 H42         2.8792    2.1145   51.6273 H       1  ZINC001169875900    0.0700
     43 H43         3.5866    2.1018   49.9939 H       1  ZINC001169875900    0.0800
     44 H44        -6.9030    1.9957   53.8233 H       1  ZINC001169875900    0.1400
     45 H45        -9.7858    2.4871   54.9567 H       1  ZINC001169875900    0.0700
     46 H46        -8.2545    2.3154   55.8478 H       1  ZINC001169875900    0.0700
     47 H47        -9.6194    1.2306   56.2065 H       1  ZINC001169875900    0.0700
@<TRIPOS>BOND
     1     1     2    1
     2     1    25    1
     3     1    26    1
     4     1    27    1
     5     2     3    1
     6     2    28    1
     7     2    29    1
     8     3     4    1
     9     3    30    1
    10     3    31    1
    11     4     5    1
    12     5    23   ar
    13     5     6   ar
    14     6     7   ar
    15     7     8   ar
    16     7    32    1
    17     8     9    1
    18     8    22   ar
    19     9    10    1
    20     9    33    1
    21    10    11    1
    22    10    34    1
    23    10    35    1
    24    11    21   ar
    25    11    12   ar
    26    12    13   ar
    27    12    36    1
    28    13    14   ar
    29    13    37    1
    30    14    15   ar
    31    14    38    1
    32    15    16    1
    33    15    21   ar
    34    16    17    2
    35    16    18    1
    36    18    19    1
    37    19    20    1
    38    19    39    1
    39    19    40    1
    40    20    41    1
    41    20    42    1
    42    20    43    1
    43    22    23   ar
    44    22    44    1
    45    23    24    1
    46    24    45    1
    47    24    46    1
    48    24    47    1
@<TRIPOS>SUBSTRUCTURE
     1 ZINC001169875900        1 TEMP              0 ****  ****    0 ROOT


##########                                Name:    ZINC000506156755
##########                DOCK_Rotatable_Bonds:                   7
##########                         Heavy_Atoms:                  30
##########                    Molecular_Weight:             400.434
##########                DOCK_Rotatable_Bonds:                   7
##########                       Formal_Charge:          -0.0200001
##########                     HBond_Acceptors:                   6
##########                        HBond_Donors:                   1
##########                         Heavy_Atoms:                  30
##########                          Grid_Score:          -33.171272
##########                     Grid_vdw_energy:          -33.471279
##########                      Grid_es_energy:            0.300006
##########           Internal_energy_repulsive:           10.534873

@<TRIPOS>MOLECULE
ZINC000506156755
 50 53 1 0 0
SMALL
USER_CHARGES


@<TRIPOS>ATOM
      1 C1         -8.3990    2.6020   55.5019 C.3     1  ZINC000506156755   -0.1600
      2 C2         -8.1339    1.6356   54.3458 C.3     1  ZINC000506156755    0.1900
      3 H3         -7.5131    0.8112   54.6964 H       1  ZINC000506156755    0.1000
      4 N4         -7.4415    2.3437   53.2663 N.am    1  ZINC000506156755   -0.7200
      5 C5         -6.4192    1.7507   52.6185 C.2     1  ZINC000506156755    0.5000
      6 O6         -6.0735    0.6302   52.9282 O.2     1  ZINC000506156755   -0.5200
      7 C7         -5.7057    2.4798   51.5093 C.3     1  ZINC000506156755    0.0900
      8 N8         -4.3632    2.8575   51.9578 N.am    1  ZINC000506156755   -0.5600
      9 C9         -3.2217    2.3949   51.4166 C.2     1  ZINC000506156755    0.5800
     10 O10        -3.1421    1.6102   50.4932 O.2     1  ZINC000506156755   -0.4600
     11 C11        -2.0806    3.0024   52.1334 C.ar    1  ZINC000506156755   -0.1400
     12 C12        -0.7036    2.9030   52.0205 C.ar    1  ZINC000506156755   -0.0400
     13 C13         0.1104    3.6290   52.8766 C.ar    1  ZINC000506156755   -0.0900
     14 C14        -0.4426    4.4500   53.8407 C.ar    1  ZINC000506156755   -0.0900
     15 C15        -1.8191    4.5594   53.9654 C.ar    1  ZINC000506156755   -0.0400
     16 C16        -2.6449    3.8400   53.1171 C.ar    1  ZINC000506156755   -0.1400
     17 C17        -4.1097    3.7170   52.9611 C.2     1  ZINC000506156755    0.5800
     18 O18        -4.9445    4.2938   53.6283 O.2     1  ZINC000506156755   -0.4600
     19 C19        -9.4438    1.0950   53.8327 C.ar    1  ZINC000506156755   -0.1200
     20 C20       -10.2146    1.8522   52.9725 C.ar    1  ZINC000506156755   -0.0800
     21 C21       -11.4164    1.3567   52.5010 C.ar    1  ZINC000506156755   -0.1400
     22 C22       -11.8495    0.1023   52.8888 C.ar    1  ZINC000506156755   -0.0800
     23 C23       -11.0823   -0.6593   53.7490 C.ar    1  ZINC000506156755   -0.1900
     24 C24        -9.8737   -0.1666   54.2195 C.ar    1  ZINC000506156755    0.1300
     25 O25        -9.1169   -0.9139   55.0653 O.3     1  ZINC000506156755   -0.2500
     26 C26        -9.7303   -1.4838   56.1355 C.ar    1  ZINC000506156755    0.0800
     27 C27       -10.6749   -0.7685   56.8576 C.ar    1  ZINC000506156755   -0.1400
     28 C28       -11.2969   -1.3503   57.9451 C.ar    1  ZINC000506156755   -0.1000
     29 C29       -10.9789   -2.6442   58.3145 C.ar    1  ZINC000506156755   -0.1200
     30 C30       -10.0379   -3.3592   57.5967 C.ar    1  ZINC000506156755   -0.1000
     31 C31        -9.4171   -2.7842   56.5048 C.ar    1  ZINC000506156755   -0.1200
     32 H32        -7.4516    2.9930   55.8730 H       1  ZINC000506156755    0.0700
     33 H33        -9.0199    3.4264   55.1513 H       1  ZINC000506156755    0.0600
     34 H34        -8.9142    2.0752   56.3050 H       1  ZINC000506156755    0.0700
     35 H35        -7.7188    3.2394   53.0177 H       1  ZINC000506156755    0.4000
     36 H36        -5.6281    1.8293   50.6381 H       1  ZINC000506156755    0.1300
     37 H37        -6.2661    3.3764   51.2446 H       1  ZINC000506156755    0.1300
     38 H38        -0.2658    2.2625   51.2691 H       1  ZINC000506156755    0.1400
     39 H39         1.1842    3.5518   52.7896 H       1  ZINC000506156755    0.1400
     40 H40         0.2019    5.0102   54.5020 H       1  ZINC000506156755    0.1400
     41 H41        -2.2459    5.2030   54.7205 H       1  ZINC000506156755    0.1400
     42 H42        -9.8788    2.8326   52.6683 H       1  ZINC000506156755    0.1300
     43 H43       -12.0179    1.9506   51.8288 H       1  ZINC000506156755    0.1300
     44 H44       -12.7887   -0.2824   52.5194 H       1  ZINC000506156755    0.1300
     45 H45       -11.4212   -1.6390   54.0520 H       1  ZINC000506156755    0.1300
     46 H46       -10.9234    0.2423   56.5697 H       1  ZINC000506156755    0.1300
     47 H47       -12.0320   -0.7938   58.5077 H       1  ZINC000506156755    0.1300
     48 H48       -11.4661   -3.0971   59.1654 H       1  ZINC000506156755    0.1300
     49 H49        -9.7913   -4.3698   57.8872 H       1  ZINC000506156755    0.1300
     50 H50        -8.6825   -3.3431   55.9443 H       1  ZINC000506156755    0.1300
@<TRIPOS>BOND
     1     1     2    1
     2     1    32    1
     3     1    33    1
     4     1    34    1
     5     2     3    1
     6     2     4    1
     7     2    19    1
     8     4     5   am
     9     4    35    1
    10     5     6    2
    11     5     7    1
    12     7     8    1
    13     7    36    1
    14     7    37    1
    15     8    17   am
    16     8     9   am
    17     9    10    2
    18     9    11    1
    19    11    16   ar
    20    11    12   ar
    21    12    13   ar
    22    12    38    1
    23    13    14   ar
    24    13    39    1
    25    14    15   ar
    26    14    40    1
    27    15    16   ar
    28    15    41    1
    29    16    17    1
    30    17    18    2
    31    19    24   ar
    32    19    20   ar
    33    20    21   ar
    34    20    42    1
    35    21    22   ar
    36    21    43    1
    37    22    23   ar
    38    22    44    1
    39    23    24   ar
    40    23    45    1
    41    24    25    1
    42    25    26    1
    43    26    31   ar
    44    26    27   ar
    45    27    28   ar
    46    27    46    1
    47    28    29   ar
    48    28    47    1
    49    29    30   ar
    50    29    48    1
    51    30    31   ar
    52    30    49    1
    53    31    50    1
@<TRIPOS>SUBSTRUCTURE
     1 ZINC000506156755        1 TEMP              0 ****  ****    0 ROOT


##########                                Name:    ZINC000435005159
##########                DOCK_Rotatable_Bonds:                  12
##########                         Heavy_Atoms:                  30
##########                    Molecular_Weight:             401.508
##########                DOCK_Rotatable_Bonds:                  12
##########                       Formal_Charge:          -0.0399985
##########                     HBond_Acceptors:                   5
##########                        HBond_Donors:                   2
##########                         Heavy_Atoms:                  30
##########                          Grid_Score:          -33.143234
##########                     Grid_vdw_energy:          -33.132561
##########                      Grid_es_energy:           -0.010673
##########           Internal_energy_repulsive:           10.626788

@<TRIPOS>MOLECULE
ZINC000435005159
 57 59 1 0 0
SMALL
USER_CHARGES


@<TRIPOS>ATOM
      1 O1        -10.1528   -2.6088   55.3814 O.2     1  ZINC000435005159   -0.5300
      2 C2         -9.7990   -1.6100   55.9715 C.2     1  ZINC000435005159    0.5200
      3 C3         -9.8136   -1.5801   57.4782 C.3     1  ZINC000435005159   -0.1400
      4 C4        -11.0392   -0.8018   57.9611 C.3     1  ZINC000435005159   -0.1200
      5 C5        -11.2230   -1.0213   59.4640 C.3     1  ZINC000435005159    0.1200
      6 N6        -10.0171   -0.5848   60.1723 N.am    1  ZINC000435005159   -0.7200
      7 C7        -10.1231    0.0399   61.3618 C.2     1  ZINC000435005159    0.5600
      8 O8        -11.2194    0.2422   61.8464 O.2     1  ZINC000435005159   -0.5300
      9 C9         -8.9062    0.4788   62.0774 C.ar    1  ZINC000435005159   -0.1900
     10 C10        -9.0022    1.1194   63.3183 C.ar    1  ZINC000435005159   -0.0200
     11 C11        -7.8328    1.5101   63.9471 C.ar    1  ZINC000435005159   -0.1800
     12 C12        -6.6184    1.2577   63.3353 C.ar    1  ZINC000435005159    0.1200
     13 N13        -6.5583    0.6521   62.1644 N.ar    1  ZINC000435005159   -0.4900
     14 C14        -7.6419    0.2564   61.5297 C.ar    1  ZINC000435005159    0.1400
     15 N15        -9.3876   -0.5288   55.2801 N.am    1  ZINC000435005159   -0.7300
     16 C16        -9.3735   -0.5578   53.8154 C.3     1  ZINC000435005159    0.1900
     17 H17        -9.3018   -1.5903   53.4731 H       1  ZINC000435005159    0.1000
     18 C18       -10.6629    0.0684   53.2804 C.3     1  ZINC000435005159   -0.1200
     19 C19       -11.5736   -1.0308   52.7301 C.3     1  ZINC000435005159   -0.0800
     20 C20       -12.8164   -0.4087   52.1474 C.ar    1  ZINC000435005159   -0.0800
     21 C21       -13.7615    0.1589   52.9815 C.ar    1  ZINC000435005159   -0.1200
     22 C22       -14.9014    0.7296   52.4469 C.ar    1  ZINC000435005159   -0.1200
     23 C23       -15.0961    0.7332   51.0783 C.ar    1  ZINC000435005159   -0.1200
     24 C24       -14.1506    0.1664   50.2443 C.ar    1  ZINC000435005159   -0.1200
     25 C25       -13.0085   -0.4005   50.7785 C.ar    1  ZINC000435005159   -0.1200
     26 C26        -8.1881    0.2227   53.3088 C.ar    1  ZINC000435005159   -0.1000
     27 C27        -7.1970   -0.4163   52.5874 C.ar    1  ZINC000435005159   -0.1100
     28 C28        -6.1097    0.2996   52.1227 C.ar    1  ZINC000435005159   -0.1200
     29 C29        -6.0136    1.6547   52.3789 C.ar    1  ZINC000435005159   -0.1200
     30 C30        -7.0052    2.2938   53.0995 C.ar    1  ZINC000435005159   -0.1200
     31 C31        -8.0946    1.5787   53.5606 C.ar    1  ZINC000435005159   -0.1000
     32 H32        -9.8564   -2.5997   57.8615 H       1  ZINC000435005159    0.1000
     33 H33        -8.9082   -1.0934   57.8407 H       1  ZINC000435005159    0.1000
     34 H34       -10.8959    0.2605   57.7637 H       1  ZINC000435005159    0.0800
     35 H35       -11.9246   -1.1535   57.4315 H       1  ZINC000435005159    0.0800
     36 H36       -12.0787   -0.4438   59.8136 H       1  ZINC000435005159    0.0700
     37 H37       -11.3950   -2.0800   59.6582 H       1  ZINC000435005159    0.0700
     38 H38        -9.1423   -0.7452   59.7850 H       1  ZINC000435005159    0.4000
     39 H39        -9.9642    1.3043   63.7733 H       1  ZINC000435005159    0.1500
     40 H40        -7.8683    2.0071   64.9052 H       1  ZINC000435005159    0.1500
     41 H41        -5.7043    1.5613   63.8237 H       1  ZINC000435005159    0.1600
     42 H42        -7.5521   -0.2363   60.5729 H       1  ZINC000435005159    0.1600
     43 H43        -9.1009    0.2686   55.7522 H       1  ZINC000435005159    0.4000
     44 H44       -11.1738    0.5934   54.0876 H       1  ZINC000435005159    0.0700
     45 H45       -10.4216    0.7728   52.4843 H       1  ZINC000435005159    0.0800
     46 H46       -11.0463   -1.5848   51.9536 H       1  ZINC000435005159    0.0700
     47 H47       -11.8512   -1.7102   53.5362 H       1  ZINC000435005159    0.0700
     48 H48       -13.6095    0.1560   54.0507 H       1  ZINC000435005159    0.1200
     49 H49       -15.6402    1.1724   53.0986 H       1  ZINC000435005159    0.1200
     50 H50       -15.9870    1.1785   50.6608 H       1  ZINC000435005159    0.1200
     51 H51       -14.3027    0.1689   49.1750 H       1  ZINC000435005159    0.1200
     52 H52       -12.2698   -0.8433   50.1269 H       1  ZINC000435005159    0.1200
     53 H53        -7.2720   -1.4749   52.3872 H       1  ZINC000435005159    0.1200
     54 H54        -5.3350   -0.1997   51.5597 H       1  ZINC000435005159    0.1200
     55 H55        -5.1638    2.2138   52.0164 H       1  ZINC000435005159    0.1200
     56 H56        -6.9300    3.3523   53.3000 H       1  ZINC000435005159    0.1200
     57 H57        -8.8693    2.0780   54.1235 H       1  ZINC000435005159    0.1200
@<TRIPOS>BOND
     1     1     2    2
     2     2     3    1
     3     2    15   am
     4     3     4    1
     5     3    32    1
     6     3    33    1
     7     4     5    1
     8     4    34    1
     9     4    35    1
    10     5     6    1
    11     5    36    1
    12     5    37    1
    13     6     7   am
    14     6    38    1
    15     7     8    2
    16     7     9    1
    17     9    14   ar
    18     9    10   ar
    19    10    11   ar
    20    10    39    1
    21    11    12   ar
    22    11    40    1
    23    12    13   ar
    24    12    41    1
    25    13    14   ar
    26    14    42    1
    27    15    16    1
    28    15    43    1
    29    16    17    1
    30    16    18    1
    31    16    26    1
    32    18    19    1
    33    18    44    1
    34    18    45    1
    35    19    20    1
    36    19    46    1
    37    19    47    1
    38    20    25   ar
    39    20    21   ar
    40    21    22   ar
    41    21    48    1
    42    22    23   ar
    43    22    49    1
    44    23    24   ar
    45    23    50    1
    46    24    25   ar
    47    24    51    1
    48    25    52    1
    49    26    31   ar
    50    26    27   ar
    51    27    28   ar
    52    27    53    1
    53    28    29   ar
    54    28    54    1
    55    29    30   ar
    56    29    55    1
    57    30    31   ar
    58    30    56    1
    59    31    57    1
@<TRIPOS>SUBSTRUCTURE
     1 ZINC000435005159        1 TEMP              0 ****  ****    0 ROOT


##########                                Name:    ZINC000506566356
##########                DOCK_Rotatable_Bonds:                  10
##########                         Heavy_Atoms:                  28
##########                    Molecular_Weight:               415.9
##########                DOCK_Rotatable_Bonds:                  10
##########                       Formal_Charge:           0.0199998
##########                     HBond_Acceptors:                   8
##########                        HBond_Donors:                   2
##########                         Heavy_Atoms:                  28
##########                          Grid_Score:          -33.063141
##########                     Grid_vdw_energy:          -32.015751
##########                      Grid_es_energy:           -1.047391
##########           Internal_energy_repulsive:            8.492174

@<TRIPOS>MOLECULE
ZINC000506566356
 46 48 1 0 0
SMALL
USER_CHARGES


@<TRIPOS>ATOM
      1 O1         -8.2901   -0.5213   60.0029 O.2     1  ZINC000506566356   -0.5100
      2 C2         -8.4151    0.3475   59.1647 C.2     1  ZINC000506566356    0.5100
      3 N3         -9.6405    0.6683   58.7043 N.am    1  ZINC000506566356   -0.7000
      4 C4        -10.8210   -0.0357   59.2113 C.3     1  ZINC000506566356    0.1200
      5 C5        -11.2128   -1.1447   58.2327 C.3     1  ZINC000506566356   -0.0900
      6 C6        -12.5891   -1.6539   58.5755 C.ar    1  ZINC000506566356   -0.0700
      7 C7        -13.0325   -1.6194   59.8842 C.ar    1  ZINC000506566356   -0.1100
      8 C8        -14.2953   -2.0859   60.1994 C.ar    1  ZINC000506566356   -0.1000
      9 C9        -15.1147   -2.5875   59.2061 C.ar    1  ZINC000506566356   -0.1100
     10 C10       -14.6714   -2.6224   57.8958 C.ar    1  ZINC000506566356   -0.0300
     11 Cl11      -15.7005   -3.2518   56.6474 Cl      1  ZINC000506566356   -0.0700
     12 C12       -13.4101   -2.1501   57.5801 C.ar    1  ZINC000506566356   -0.1000
     13 C13        -7.2118    1.0651   58.6479 C.2     1  ZINC000506566356    0.5100
     14 O14        -6.1138    0.5566   58.7448 O.2     1  ZINC000506566356   -0.5000
     15 N15        -7.3448    2.2772   58.0739 N.am    1  ZINC000506566356   -0.6300
     16 C16        -6.2177    2.9494   57.5899 C.ar    1  ZINC000506566356    0.1100
     17 C17        -5.4543    3.7324   58.4440 C.ar    1  ZINC000506566356   -0.0800
     18 C18        -4.3411    4.3955   57.9632 C.ar    1  ZINC000506566356   -0.1400
     19 C19        -3.9853    4.2812   56.6321 C.ar    1  ZINC000506566356   -0.0900
     20 C20        -4.7412    3.5033   55.7744 C.ar    1  ZINC000506566356   -0.1900
     21 C21        -5.8549    2.8302   56.2491 C.ar    1  ZINC000506566356    0.1200
     22 O22        -6.5991    2.0650   55.4071 O.3     1  ZINC000506566356   -0.3100
     23 C23        -7.1351    2.7081   54.2489 C.3     1  ZINC000506566356    0.1400
     24 C24        -6.6051    2.0341   53.0096 C.2     1  ZINC000506566356    0.0500
     25 C25        -6.1973    2.7151   51.9345 C.2     1  ZINC000506566356   -0.2300
     26 S26        -5.6599    1.5505   50.7265 S.3     1  ZINC000506566356    0.1400
     27 C27        -6.0369    0.2636   51.7872 C.2     1  ZINC000506566356    0.0200
     28 N28        -6.5006    0.7251   52.8993 N.2     1  ZINC000506566356   -0.4700
     29 H29        -9.7408    1.3653   58.0372 H       1  ZINC000506566356    0.4200
     30 H30       -10.5937   -0.4727   60.1836 H       1  ZINC000506566356    0.0800
     31 H31       -11.6475    0.6676   59.3132 H       1  ZINC000506566356    0.0800
     32 H32       -11.2143   -0.7491   57.2169 H       1  ZINC000506566356    0.0900
     33 H33       -10.4949   -1.9618   58.3034 H       1  ZINC000506566356    0.0900
     34 H34       -12.3921   -1.2281   60.6609 H       1  ZINC000506566356    0.1300
     35 H35       -14.6411   -2.0587   61.2221 H       1  ZINC000506566356    0.1300
     36 H36       -16.1008   -2.9526   59.4525 H       1  ZINC000506566356    0.1300
     37 H37       -13.0636   -2.1770   56.5576 H       1  ZINC000506566356    0.1300
     38 H38        -8.2223    2.6835   57.9964 H       1  ZINC000506566356    0.4300
     39 H39        -5.7301    3.8237   59.4842 H       1  ZINC000506566356    0.1500
     40 H40        -3.7479    5.0049   58.6288 H       1  ZINC000506566356    0.1300
     41 H41        -3.1146    4.8013   56.2609 H       1  ZINC000506566356    0.1300
     42 H42        -4.4607    3.4170   54.7349 H       1  ZINC000506566356    0.1400
     43 H43        -8.2226    2.6369   54.2644 H       1  ZINC000506566356    0.0900
     44 H44        -6.8396    3.7573   54.2464 H       1  ZINC000506566356    0.0900
     45 H45        -6.1972    3.7896   51.8254 H       1  ZINC000506566356    0.1800
     46 H46        -5.9022   -0.7838   51.5608 H       1  ZINC000506566356    0.2100
@<TRIPOS>BOND
     1     1     2    2
     2     2     3   am
     3     2    13    1
     4     3     4    1
     5     3    29    1
     6     4     5    1
     7     4    30    1
     8     4    31    1
     9     5     6    1
    10     5    32    1
    11     5    33    1
    12     6    12   ar
    13     6     7   ar
    14     7     8   ar
    15     7    34    1
    16     8     9   ar
    17     8    35    1
    18     9    10   ar
    19     9    36    1
    20    10    11    1
    21    10    12   ar
    22    12    37    1
    23    13    14    2
    24    13    15   am
    25    15    16    1
    26    15    38    1
    27    16    21   ar
    28    16    17   ar
    29    17    18   ar
    30    17    39    1
    31    18    19   ar
    32    18    40    1
    33    19    20   ar
    34    19    41    1
    35    20    21   ar
    36    20    42    1
    37    21    22    1
    38    22    23    1
    39    23    24    1
    40    23    43    1
    41    23    44    1
    42    24    28    1
    43    24    25    2
    44    25    26    1
    45    25    45    1
    46    26    27    1
    47    27    28    2
    48    27    46    1
@<TRIPOS>SUBSTRUCTURE
     1 ZINC000506566356        1 TEMP              0 ****  ****    0 ROOT


##########                                Name:    ZINC000058043838
##########                DOCK_Rotatable_Bonds:                   8
##########                         Heavy_Atoms:                  29
##########                    Molecular_Weight:             412.469
##########                DOCK_Rotatable_Bonds:                   8
##########                       Formal_Charge:           0.0200001
##########                     HBond_Acceptors:                   9
##########                        HBond_Donors:                   0
##########                         Heavy_Atoms:                  29
##########                          Grid_Score:          -33.015369
##########                     Grid_vdw_energy:          -32.963150
##########                      Grid_es_energy:           -0.052218
##########           Internal_energy_repulsive:            7.287716

@<TRIPOS>MOLECULE
ZINC000058043838
 49 51 1 0 0
SMALL
USER_CHARGES


@<TRIPOS>ATOM
      1 C1        -12.4066   -0.4123   51.9952 C.3     1  ZINC000058043838    0.0300
      2 O2        -11.0867   -0.6940   52.4649 O.3     1  ZINC000058043838   -0.3800
      3 C3        -10.5301    0.3347   53.2859 C.3     1  ZINC000058043838    0.0300
      4 C4         -9.1513   -0.1016   53.7854 C.3     1  ZINC000058043838    0.1000
      5 N5         -8.5162    1.0094   54.4986 N.am    1  ZINC000058043838   -0.5200
      6 C6         -8.7049    1.1542   55.8252 C.2     1  ZINC000058043838    0.5100
      7 O7         -9.4017    0.3656   56.4282 O.2     1  ZINC000058043838   -0.4500
      8 C8         -8.0503    2.2960   56.5593 C.3     1  ZINC000058043838   -0.0900
      9 C9         -7.8620    1.9206   58.0065 C.ar    1  ZINC000058043838   -0.1400
     10 C10        -8.8243    2.2510   58.9483 C.ar    1  ZINC000058043838   -0.0500
     11 C11        -8.6089    1.8850   60.2684 C.ar    1  ZINC000058043838   -0.1700
     12 C12        -7.4506    1.2078   60.5990 C.ar    1  ZINC000058043838    0.1300
     13 C13        -7.2063    0.8047   62.0303 C.3     1  ZINC000058043838   -0.1100
     14 N14        -6.5565    0.9099   59.6763 N.ar    1  ZINC000058043838   -0.4800
     15 C15        -6.7305    1.2375   58.4109 C.ar    1  ZINC000058043838    0.1200
     16 C16        -7.7194    1.9139   53.8074 C.2     1  ZINC000058043838    0.3100
     17 N17        -6.4996    1.6979   53.4246 N.2     1  ZINC000058043838   -0.4700
     18 C18        -5.8905    2.6787   52.7732 C.2     1  ZINC000058043838    0.1100
     19 C19        -4.4964    2.5580   52.2817 C.ar    1  ZINC000058043838    0.0400
     20 C20        -3.4530    3.1607   52.9825 C.ar    1  ZINC000058043838   -0.0800
     21 C21        -2.1577    3.0446   52.5207 C.ar    1  ZINC000058043838   -0.0500
     22 C22        -1.8938    2.3318   51.3649 C.ar    1  ZINC000058043838   -0.0400
     23 N23        -0.5022    2.2109   50.8747 N.pl3   1  ZINC000058043838    0.0300
     24 O24         0.4078    2.7384   51.4886 O.2     1  ZINC000058043838   -0.1600
     25 O25        -0.2673    1.5838   49.8572 O.2     1  ZINC000058043838   -0.1600
     26 C26        -2.9253    1.7312   50.6656 C.ar    1  ZINC000058043838   -0.0500
     27 C27        -4.2240    1.8366   51.1206 C.ar    1  ZINC000058043838   -0.1100
     28 C28        -6.6243    3.7909   52.5885 C.2     1  ZINC000058043838   -0.2600
     29 S29        -8.2114    3.5295   53.3082 S.3     1  ZINC000058043838    0.1500
     30 H30       -13.0753   -0.2829   52.8463 H       1  ZINC000058043838    0.0500
     31 H31       -12.3936    0.5016   51.4012 H       1  ZINC000058043838    0.0400
     32 H32       -12.7578   -1.2406   51.3799 H       1  ZINC000058043838    0.0900
     33 H33       -10.4325    1.2511   52.7039 H       1  ZINC000058043838    0.0600
     34 H34       -11.1854    0.5137   54.1384 H       1  ZINC000058043838    0.0800
     35 H35        -9.2611   -0.9508   54.4597 H       1  ZINC000058043838    0.1200
     36 H36        -8.5317   -0.3896   52.9361 H       1  ZINC000058043838    0.1000
     37 H37        -7.0803    2.5083   56.1099 H       1  ZINC000058043838    0.1100
     38 H38        -8.6831    3.1810   56.4928 H       1  ZINC000058043838    0.1100
     39 H39        -9.7201    2.7812   58.6607 H       1  ZINC000058043838    0.1300
     40 H40        -9.3371    2.1264   61.0286 H       1  ZINC000058043838    0.1400
     41 H41        -7.6219   -0.1879   62.2042 H       1  ZINC000058043838    0.0800
     42 H42        -6.1340    0.7888   62.2254 H       1  ZINC000058043838    0.0800
     43 H43        -7.6863    1.5214   62.6966 H       1  ZINC000058043838    0.0800
     44 H44        -5.9760    0.9765   57.6835 H       1  ZINC000058043838    0.1500
     45 H45        -3.6578    3.7177   53.8847 H       1  ZINC000058043838    0.1600
     46 H46        -1.3485    3.5114   53.0626 H       1  ZINC000058043838    0.1600
     47 H47        -2.7136    1.1759   49.7639 H       1  ZINC000058043838    0.1600
     48 H48        -5.0285    1.3670   50.5742 H       1  ZINC000058043838    0.1500
     49 H49        -6.2982    4.6878   52.0830 H       1  ZINC000058043838    0.1800
@<TRIPOS>BOND
     1     1     2    1
     2     1    30    1
     3     1    31    1
     4     1    32    1
     5     2     3    1
     6     3     4    1
     7     3    33    1
     8     3    34    1
     9     4     5    1
    10     4    35    1
    11     4    36    1
    12     5     6   am
    13     5    16    1
    14     6     7    2
    15     6     8    1
    16     8     9    1
    17     8    37    1
    18     8    38    1
    19     9    15   ar
    20     9    10   ar
    21    10    11   ar
    22    10    39    1
    23    11    12   ar
    24    11    40    1
    25    12    13    1
    26    12    14   ar
    27    13    41    1
    28    13    42    1
    29    13    43    1
    30    14    15   ar
    31    15    44    1
    32    16    29    1
    33    16    17    2
    34    17    18    1
    35    18    19    1
    36    18    28    2
    37    19    27   ar
    38    19    20   ar
    39    20    21   ar
    40    20    45    1
    41    21    22   ar
    42    21    46    1
    43    22    23    1
    44    22    26   ar
    45    23    24    2
    46    23    25    2
    47    26    27   ar
    48    26    47    1
    49    27    48    1
    50    28    29    1
    51    28    49    1
@<TRIPOS>SUBSTRUCTURE
     1 ZINC000058043838        1 TEMP              0 ****  ****    0 ROOT


##########                                Name:    ZINC000523863446
##########                DOCK_Rotatable_Bonds:                  10
##########                         Heavy_Atoms:                  29
##########                    Molecular_Weight:             396.533
##########                DOCK_Rotatable_Bonds:                  10
##########                       Formal_Charge:          -0.0200008
##########                     HBond_Acceptors:                   6
##########                        HBond_Donors:                   1
##########                         Heavy_Atoms:                  29
##########                          Grid_Score:          -32.856575
##########                     Grid_vdw_energy:          -32.028500
##########                      Grid_es_energy:           -0.828077
##########           Internal_energy_repulsive:           23.360470

@<TRIPOS>MOLECULE
ZINC000523863446
 61 63 1 0 0
SMALL
USER_CHARGES


@<TRIPOS>ATOM
      1 C1        -15.4658    1.0300   48.6718 C.3     1  ZINC000523863446   -0.1700
      2 C2        -14.5075   -0.0515   49.1748 C.3     1  ZINC000523863446    0.1500
      3 H3        -13.6029   -0.0468   48.5667 H       1  ZINC000523863446    0.1300
      4 C4        -14.1480    0.2248   50.6120 C.2     1  ZINC000523863446    0.5100
      5 O5        -14.7035   -0.3817   51.5033 O.2     1  ZINC000523863446   -0.5100
      6 N6        -13.2095    1.1460   50.9068 N.am    1  ZINC000523863446   -0.6000
      7 C7        -12.5399    1.8800   49.8302 C.3     1  ZINC000523863446    0.0700
      8 C8        -12.8589    1.4133   52.3040 C.3     1  ZINC000523863446    0.1000
      9 C9        -11.7737    0.4630   52.7401 C.2     1  ZINC000523863446    0.5000
     10 O10       -11.8897   -0.7264   52.5329 O.2     1  ZINC000523863446   -0.5200
     11 N11       -10.6742    0.9348   53.3606 N.am    1  ZINC000523863446   -0.7200
     12 C12        -9.6185    0.0111   53.7831 C.3     1  ZINC000523863446    0.1900
     13 H13        -9.8557   -0.9948   53.4368 H       1  ZINC000523863446    0.1000
     14 C14        -9.5187    0.0145   55.3099 C.3     1  ZINC000523863446   -0.1200
     15 C15       -10.5057   -1.0017   55.8878 C.3     1  ZINC000523863446   -0.0900
     16 C16        -9.7509   -2.0056   56.7616 C.3     1  ZINC000523863446   -0.1200
     17 C17       -10.7379   -3.0219   57.3396 C.3     1  ZINC000523863446   -0.1200
     18 C18       -11.7830   -2.2931   58.1865 C.3     1  ZINC000523863446   -0.1200
     19 C19       -12.5377   -1.2892   57.3127 C.3     1  ZINC000523863446   -0.1200
     20 C20       -11.5508   -0.2729   56.7348 C.3     1  ZINC000523863446   -0.1100
     21 C21        -8.3026    0.4485   53.1928 C.ar    1  ZINC000523863446   -0.0900
     22 C22        -7.4353   -0.4902   52.6660 C.ar    1  ZINC000523863446   -0.1100
     23 C23        -6.2284   -0.0890   52.1245 C.ar    1  ZINC000523863446   -0.1200
     24 C24        -5.8890    1.2510   52.1096 C.ar    1  ZINC000523863446   -0.1200
     25 C25        -6.7567    2.1898   52.6355 C.ar    1  ZINC000523863446   -0.1200
     26 C26        -7.9655    1.7890   53.1731 C.ar    1  ZINC000523863446   -0.1000
     27 N27       -15.1550   -1.3619   49.0765 N.pl3   1  ZINC000523863446   -0.3600
     28 C28       -16.2703   -1.7475   49.7313 C.2     1  ZINC000523863446    0.0600
     29 C29       -16.5406   -3.0231   49.3696 C.2     1  ZINC000523863446   -0.2700
     30 C30       -15.5569   -3.4311   48.4628 C.2     1  ZINC000523863446    0.0500
     31 N31       -14.7292   -2.4340   48.2818 N.2     1  ZINC000523863446   -0.2900
     32 H32       -16.3705    1.0252   49.2798 H       1  ZINC000523863446    0.0700
     33 H33       -14.9840    2.0049   48.7448 H       1  ZINC000523863446    0.1000
     34 H34       -15.7257    0.8302   47.6322 H       1  ZINC000523863446    0.0800
     35 H35       -13.0999    2.7880   49.6065 H       1  ZINC000523863446    0.0700
     36 H36       -11.5299    2.1440   50.1440 H       1  ZINC000523863446    0.0800
     37 H37       -12.4915    1.2541   48.9392 H       1  ZINC000523863446    0.0800
     38 H38       -12.5033    2.4393   52.3994 H       1  ZINC000523863446    0.1100
     39 H39       -13.7384    1.2735   52.9323 H       1  ZINC000523863446    0.1100
     40 H40       -10.5820    1.8858   53.5275 H       1  ZINC000523863446    0.4000
     41 H41        -8.5051   -0.2530   55.6084 H       1  ZINC000523863446    0.0800
     42 H42        -9.7582    1.0087   55.6874 H       1  ZINC000523863446    0.0700
     43 H43       -11.0020   -1.5298   55.0736 H       1  ZINC000523863446    0.0700
     44 H44        -9.0064   -2.5247   56.1582 H       1  ZINC000523863446    0.0600
     45 H45        -9.2547   -1.4774   57.5758 H       1  ZINC000523863446    0.0600
     46 H46       -11.2341   -3.5500   56.5253 H       1  ZINC000523863446    0.0600
     47 H47       -10.2002   -3.7370   57.9621 H       1  ZINC000523863446    0.0600
     48 H48       -12.4861   -3.0171   58.5983 H       1  ZINC000523863446    0.0600
     49 H49       -11.2868   -1.7649   59.0008 H       1  ZINC000523863446    0.0600
     50 H50       -13.0340   -1.8173   56.4985 H       1  ZINC000523863446    0.0600
     51 H51       -13.2823   -0.7700   57.9162 H       1  ZINC000523863446    0.0600
     52 H52       -11.0546    0.2551   57.5490 H       1  ZINC000523863446    0.0600
     53 H53       -12.0885    0.4422   56.1123 H       1  ZINC000523863446    0.0600
     54 H54        -7.7005   -1.5370   52.6777 H       1  ZINC000523863446    0.1200
     55 H55        -5.5504   -0.8224   51.7136 H       1  ZINC000523863446    0.1200
     56 H56        -4.9456    1.5644   51.6872 H       1  ZINC000523863446    0.1200
     57 H57        -6.4913    3.2366   52.6241 H       1  ZINC000523863446    0.1200
     58 H58        -8.6434    2.5224   53.5842 H       1  ZINC000523863446    0.1200
     59 H59       -16.8440   -1.1459   50.4206 H       1  ZINC000523863446    0.1700
     60 H60       -17.3692   -3.6208   49.7197 H       1  ZINC000523863446    0.1500
     61 H61       -15.4943   -4.4000   47.9899 H       1  ZINC000523863446    0.1800
@<TRIPOS>BOND
     1     1     2    1
     2     1    32    1
     3     1    33    1
     4     1    34    1
     5     2     3    1
     6     2     4    1
     7     2    27    1
     8     4     5    2
     9     4     6   am
    10     6     7    1
    11     6     8    1
    12     7    35    1
    13     7    36    1
    14     7    37    1
    15     8     9    1
    16     8    38    1
    17     8    39    1
    18     9    10    2
    19     9    11   am
    20    11    12    1
    21    11    40    1
    22    12    13    1
    23    12    14    1
    24    12    21    1
    25    14    15    1
    26    14    41    1
    27    14    42    1
    28    15    20    1
    29    15    16    1
    30    15    43    1
    31    16    17    1
    32    16    44    1
    33    16    45    1
    34    17    18    1
    35    17    46    1
    36    17    47    1
    37    18    19    1
    38    18    48    1
    39    18    49    1
    40    19    20    1
    41    19    50    1
    42    19    51    1
    43    20    52    1
    44    20    53    1
    45    21    26   ar
    46    21    22   ar
    47    22    23   ar
    48    22    54    1
    49    23    24   ar
    50    23    55    1
    51    24    25   ar
    52    24    56    1
    53    25    26   ar
    54    25    57    1
    55    26    58    1
    56    27    31    1
    57    27    28    1
    58    28    29    2
    59    28    59    1
    60    29    30    1
    61    29    60    1
    62    30    31    2
    63    30    61    1
@<TRIPOS>SUBSTRUCTURE
     1 ZINC000523863446        1 TEMP              0 ****  ****    0 ROOT


##########                                Name:    ZINC000600609084
##########                DOCK_Rotatable_Bonds:                   8
##########                         Heavy_Atoms:                  30
##########                    Molecular_Weight:             422.548
##########                DOCK_Rotatable_Bonds:                   8
##########                       Formal_Charge:           0.0100005
##########                     HBond_Acceptors:                   6
##########                        HBond_Donors:                   2
##########                         Heavy_Atoms:                  30
##########                          Grid_Score:          -32.828205
##########                     Grid_vdw_energy:          -32.468468
##########                      Grid_es_energy:           -0.359737
##########           Internal_energy_repulsive:           21.217697

@<TRIPOS>MOLECULE
ZINC000600609084
 56 59 1 0 0
SMALL
USER_CHARGES


@<TRIPOS>ATOM
      1 O1        -11.0142   -3.1337   59.4721 O.2     1  ZINC000600609084   -0.5300
      2 C2        -11.2145   -2.5195   58.4457 C.2     1  ZINC000600609084    0.5200
      3 C3        -10.7945   -3.1060   57.1226 C.3     1  ZINC000600609084   -0.1500
      4 C4         -9.9295   -2.0946   56.3679 C.3     1  ZINC000600609084    0.1300
      5 N5         -9.9813   -2.3826   54.9325 N.am    1  ZINC000600609084   -1.1200
      6 S6        -10.4257   -1.1967   53.8654 S.o2    1  ZINC000600609084    2.7000
      7 O7        -10.2322   -1.7344   52.5644 O.2     1  ZINC000600609084   -0.9600
      8 O8        -11.6746   -0.6945   54.3210 O.2     1  ZINC000600609084   -0.9500
      9 C9         -9.2676    0.1201   54.0370 C.ar    1  ZINC000600609084   -0.6700
     10 C10        -9.5381    1.1609   54.9229 C.ar    1  ZINC000600609084   -0.0400
     11 C11        -8.6646    2.1932   55.0792 C.ar    1  ZINC000600609084   -0.1200
     12 C12        -7.4713    2.2124   54.3378 C.ar    1  ZINC000600609084   -0.0100
     13 C13        -6.5450    3.2607   54.4725 C.ar    1  ZINC000600609084   -0.1200
     14 C14        -5.3994    3.2456   53.7380 C.ar    1  ZINC000600609084   -0.0900
     15 C15        -5.1288    2.2044   52.8516 C.ar    1  ZINC000600609084   -0.1200
     16 C16        -6.0023    1.1727   52.6949 C.ar    1  ZINC000600609084   -0.0900
     17 C17        -7.1961    1.1535   53.4364 C.ar    1  ZINC000600609084   -0.0800
     18 C18        -8.1192    0.1024   53.3062 C.ar    1  ZINC000600609084    0.0200
     19 N19       -11.8179   -1.3151   58.4879 N.am    1  ZINC000600609084   -0.7200
     20 C20       -12.2262   -0.7451   59.7741 C.3     1  ZINC000600609084    0.1400
     21 H21       -11.9220   -1.4037   60.5876 H       1  ZINC000600609084    0.1000
     22 C22       -11.5950    0.6462   59.9583 C.3     1  ZINC000600609084   -0.1300
     23 C23       -12.7624    1.6458   60.0903 C.3     1  ZINC000600609084   -0.1300
     24 C24       -13.9492    0.9386   59.3900 C.3     1  ZINC000600609084   -0.1200
     25 C25       -13.7553   -0.5434   59.8012 C.3     1  ZINC000600609084   -0.0700
     26 H26       -14.1457   -0.7151   60.8043 H       1  ZINC000600609084    0.0900
     27 C27       -14.4290   -1.4580   58.8108 C.ar    1  ZINC000600609084   -0.0600
     28 C28       -15.1424   -2.5547   59.2571 C.ar    1  ZINC000600609084   -0.1100
     29 C29       -15.7602   -3.3937   58.3487 C.ar    1  ZINC000600609084   -0.1200
     30 C30       -15.6650   -3.1356   56.9939 C.ar    1  ZINC000600609084   -0.1200
     31 C31       -14.9523   -2.0384   56.5477 C.ar    1  ZINC000600609084   -0.1200
     32 C32       -14.3381   -1.1970   57.4564 C.ar    1  ZINC000600609084   -0.1100
     33 H33       -10.2217   -4.0173   57.2945 H       1  ZINC000600609084    0.1000
     34 H34       -11.6799   -3.3396   56.5312 H       1  ZINC000600609084    0.1000
     35 H35       -10.3050   -1.0877   56.5502 H       1  ZINC000600609084    0.0900
     36 H36        -8.8990   -2.1665   56.7160 H       1  ZINC000600609084    0.0800
     37 H37        -9.7552   -3.2680   54.6069 H       1  ZINC000600609084    0.4200
     38 H38       -10.4548    1.1487   55.4938 H       1  ZINC000600609084    0.1400
     39 H39        -8.8878    2.9934   55.7694 H       1  ZINC000600609084    0.1400
     40 H40        -6.7414    4.0744   55.1550 H       1  ZINC000600609084    0.1300
     41 H41        -4.6895    4.0526   53.8430 H       1  ZINC000600609084    0.1300
     42 H42        -4.2124    2.2169   52.2804 H       1  ZINC000600609084    0.1300
     43 H43        -5.7795    0.3729   52.0042 H       1  ZINC000600609084    0.1300
     44 H44        -7.9206   -0.7134   52.6269 H       1  ZINC000600609084    0.1500
     45 H45       -11.9817   -0.8258   57.6666 H       1  ZINC000600609084    0.4000
     46 H46       -10.9851    0.6629   60.8615 H       1  ZINC000600609084    0.0800
     47 H47       -10.9848    0.8971   59.0906 H       1  ZINC000600609084    0.0700
     48 H48       -12.9924    1.8273   61.1402 H       1  ZINC000600609084    0.0700
     49 H49       -12.5230    2.5810   59.5841 H       1  ZINC000600609084    0.0700
     50 H50       -14.9002    1.3210   59.7608 H       1  ZINC000600609084    0.0700
     51 H51       -13.8819    1.0513   58.3079 H       1  ZINC000600609084    0.0700
     52 H52       -15.2167   -2.7562   60.3155 H       1  ZINC000600609084    0.1200
     53 H53       -16.3169   -4.2508   58.6973 H       1  ZINC000600609084    0.1200
     54 H54       -16.1470   -3.7915   56.2841 H       1  ZINC000600609084    0.1200
     55 H55       -14.8776   -1.8371   55.4893 H       1  ZINC000600609084    0.1200
     56 H56       -13.7813   -0.3398   57.1077 H       1  ZINC000600609084    0.1200
@<TRIPOS>BOND
     1     1     2    2
     2     2     3    1
     3     2    19   am
     4     3     4    1
     5     3    33    1
     6     3    34    1
     7     4     5    1
     8     4    35    1
     9     4    36    1
    10     5     6   am
    11     5    37    1
    12     6     7    2
    13     6     8    2
    14     6     9    1
    15     9    18   ar
    16     9    10   ar
    17    10    11   ar
    18    10    38    1
    19    11    12   ar
    20    11    39    1
    21    12    17   ar
    22    12    13   ar
    23    13    14   ar
    24    13    40    1
    25    14    15   ar
    26    14    41    1
    27    15    16   ar
    28    15    42    1
    29    16    17   ar
    30    16    43    1
    31    17    18   ar
    32    18    44    1
    33    19    20    1
    34    19    45    1
    35    20    21    1
    36    20    25    1
    37    20    22    1
    38    22    23    1
    39    22    46    1
    40    22    47    1
    41    23    24    1
    42    23    48    1
    43    23    49    1
    44    24    25    1
    45    24    50    1
    46    24    51    1
    47    25    26    1
    48    25    27    1
    49    27    32   ar
    50    27    28   ar
    51    28    29   ar
    52    28    52    1
    53    29    30   ar
    54    29    53    1
    55    30    31   ar
    56    30    54    1
    57    31    32   ar
    58    31    55    1
    59    32    56    1
@<TRIPOS>SUBSTRUCTURE
     1 ZINC000600609084        1 TEMP              0 ****  ****    0 ROOT


##########                                Name:     oleObject17.pdb
##########                DOCK_Rotatable_Bonds:                   8
##########                         Heavy_Atoms:                  29
##########                    Molecular_Weight:             435.393
##########                DOCK_Rotatable_Bonds:                   8
##########                       Formal_Charge:         0.000400059
##########                     HBond_Acceptors:                   6
##########                        HBond_Donors:                   0
##########                         Heavy_Atoms:                  29
##########                          Grid_Score:          -32.767342
##########                     Grid_vdw_energy:          -32.745197
##########                      Grid_es_energy:           -0.022143
##########           Internal_energy_repulsive:           18.554598

@<TRIPOS>MOLECULE
oleObject17.pdb
 57 59 1 0 0
SMALL
NO_CHARGES


@<TRIPOS>ATOM
      1 C         -10.3725    1.2070   60.0973 C.3     1  UNL         0.0391
      2 C          -9.7363    0.9450   61.4641 C.ar    1  UNL        -0.0277
      3 C          -8.4235    0.4311   61.6141 C.ar    1  UNL        -0.0463
      4 C          -7.9195    0.1859   62.9067 C.ar    1  UNL        -0.0590
      5 C          -8.6994    0.4475   64.0426 C.ar    1  UNL        -0.0620
      6 C          -9.9903    0.9720   63.8965 C.ar    1  UNL        -0.0619
      7 C         -10.5007    1.2234   62.6144 C.ar    1  UNL        -0.0572
      8 C          -7.5252    0.1371   60.4177 C.3     1  UNL        -0.0394
      9 N         -10.7892   -0.0360   59.4134 N.am    1  UNL        -0.3003
     10 C         -10.2832   -0.3702   58.1574 C.2     1  UNL         0.2175
     11 O          -9.2749    0.1766   57.7438 O.2     1  UNL        -0.2772
     12 C         -10.7899   -1.6976   57.5339 C.3     1  UNL         0.0384
     13 C          -9.7480   -2.3522   56.5918 C.3     1  UNL        -0.0289
     14 C          -9.5617   -1.5309   55.3012 C.3     1  UNL        -0.0010
     15 N         -10.8383   -1.3498   54.5759 N.4     1  UNL        -0.3010
     16 C         -11.9368   -0.7891   55.3972 C.3     1  UNL        -0.0010
     17 C         -12.1187   -1.5287   56.7478 C.3     1  UNL        -0.0289
     18 C         -10.6772   -0.6864   53.2618 C.3     1  UNL         0.0222
     19 C          -9.7732    0.5673   53.3070 C.3     1  UNL         0.0661
     20 O          -8.4024    0.1363   53.3479 O.3     1  UNL        -0.3432
     21 C          -7.3382    1.0133   53.2586 C.ar    1  UNL         0.0937
     22 C          -7.3705    2.2899   53.8603 C.ar    1  UNL        -0.0288
     23 C          -6.2651    3.1500   53.7541 C.ar    1  UNL        -0.0408
     24 C          -5.1238    2.7431   53.0456 C.ar    1  UNL         0.0422
     25 C          -5.0853    1.4769   52.4410 C.ar    1  UNL        -0.0221
     26 C          -6.1891    0.6142   52.5462 C.ar    1  UNL         0.0723
     27 CL         -6.1064   -0.9631   51.7842 Cl      1  UNL        -0.0814
     28 CL         -3.7472    3.8169   52.9156 Cl      1  UNL        -0.0843
     29 C         -11.7639   -0.8773   60.1316 C.3     1  UNL         0.0031
     30 H          -9.6842    1.7474   59.4381 H       1  UNL         0.0520
     31 H         -11.2434    1.8585   60.2423 H       1  UNL         0.0520
     32 H          -6.9166   -0.2112   63.0351 H       1  UNL         0.0626
     33 H          -8.3005    0.2505   65.0337 H       1  UNL         0.0623
     34 H         -10.5951    1.1815   64.7740 H       1  UNL         0.0623
     35 H         -11.5043    1.6258   62.5131 H       1  UNL         0.0626
     36 H          -7.4239    1.0180   59.7720 H       1  UNL         0.0280
     37 H          -7.9238   -0.6859   59.8137 H       1  UNL         0.0280
     38 H          -6.5138   -0.1497   60.7311 H       1  UNL         0.0280
     39 H         -10.9868   -2.3890   58.3618 H       1  UNL         0.0402
     40 H         -10.0872   -3.3612   56.3238 H       1  UNL         0.0288
     41 H          -8.7824   -2.4761   57.0931 H       1  UNL         0.0288
     42 H          -8.8347   -2.0415   54.6567 H       1  UNL         0.0431
     43 H          -9.1418   -0.5551   55.5705 H       1  UNL         0.0431
     44 H         -12.8792   -0.8433   54.8373 H       1  UNL         0.0431
     45 H         -11.7443    0.2706   55.5986 H       1  UNL         0.0431
     46 H         -12.5355   -2.5235   56.5434 H       1  UNL         0.0288
     47 H         -12.8589   -1.0024   57.3640 H       1  UNL         0.0288
     48 H         -11.6624   -0.3966   52.8744 H       1  UNL         0.0455
     49 H         -10.2461   -1.4004   52.5482 H       1  UNL         0.0455
     50 H          -9.9967    1.1573   54.2032 H       1  UNL         0.0586
     51 H          -9.9475    1.1884   52.4201 H       1  UNL         0.0586
     52 H          -8.2435    2.6269   54.4098 H       1  UNL         0.0651
     53 H          -6.2954    4.1309   54.2201 H       1  UNL         0.0639
     54 H          -4.2015    1.1635   51.8925 H       1  UNL         0.0655
     55 H         -12.4554   -0.2495   60.7077 H       1  UNL         0.0433
     56 H         -11.2428   -1.5546   60.8190 H       1  UNL         0.0433
     57 H         -12.3532   -1.4673   59.4191 H       1  UNL         0.0433
@<TRIPOS>BOND
     1     1     2    1
     2     1     9    1
     3     1    30    1
     4     1    31    1
     5     2     3   ar
     6     2     7   ar
     7     3     4   ar
     8     3     8    1
     9     4     5   ar
    10     4    32    1
    11     5     6   ar
    12     5    33    1
    13     6     7   ar
    14     6    34    1
    15     7    35    1
    16     8    36    1
    17     8    37    1
    18     8    38    1
    19     9    10   am
    20     9    29    1
    21    10    11    2
    22    10    12    1
    23    12    13    1
    24    12    17    1
    25    12    39    1
    26    13    14    1
    27    13    40    1
    28    13    41    1
    29    14    15    1
    30    14    42    1
    31    14    43    1
    32    15    16    1
    33    15    18    1
    34    16    17    1
    35    16    44    1
    36    16    45    1
    37    17    46    1
    38    17    47    1
    39    18    19    1
    40    18    48    1
    41    18    49    1
    42    19    20    1
    43    19    50    1
    44    19    51    1
    45    20    21    1
    46    21    22   ar
    47    21    26   ar
    48    22    23   ar
    49    22    52    1
    50    23    24   ar
    51    23    53    1
    52    24    25   ar
    53    24    28    1
    54    25    26   ar
    55    25    54    1
    56    26    27    1
    57    29    55    1
    58    29    56    1
    59    29    57    1
@<TRIPOS>SUBSTRUCTURE
     1 UNL         1 TEMP              0 ****  ****    0 ROOT


##########                                Name:    ZINC000373715094
##########                DOCK_Rotatable_Bonds:                   6
##########                         Heavy_Atoms:                  27
##########                    Molecular_Weight:             362.431
##########                DOCK_Rotatable_Bonds:                   6
##########                       Formal_Charge:           0.0299999
##########                     HBond_Acceptors:                   6
##########                        HBond_Donors:                   2
##########                         Heavy_Atoms:                  27
##########                          Grid_Score:          -32.763924
##########                     Grid_vdw_energy:          -32.340675
##########                      Grid_es_energy:           -0.423250
##########           Internal_energy_repulsive:           16.577705

@<TRIPOS>MOLECULE
ZINC000373715094
 49 52 1 0 0
SMALL
USER_CHARGES


@<TRIPOS>ATOM
      1 C1        -12.9511    0.2344   58.7372 C.3     1  ZINC000373715094    0.0900
      2 N2        -12.0300   -0.8661   58.4425 N.am    1  ZINC000373715094   -0.6100
      3 C3        -12.3631   -2.1674   58.4907 C.2     1  ZINC000373715094    0.5200
      4 O4        -13.4589   -2.5934   58.7886 O.2     1  ZINC000373715094   -0.5200
      5 C5        -11.1725   -3.0234   58.1188 C.3     1  ZINC000373715094   -0.1600
      6 C6        -10.1948   -2.0377   57.4379 C.3     1  ZINC000373715094   -0.1000
      7 H7         -9.1620   -2.2729   57.6948 H       1  ZINC000373715094    0.1100
      8 C8        -10.3910   -2.0321   55.9206 C.3     1  ZINC000373715094    0.1300
      9 N9         -9.8834   -0.7743   55.3672 N.am    1  ZINC000373715094   -0.7300
     10 C10        -9.5223   -0.7057   54.0705 C.2     1  ZINC000373715094    0.5200
     11 O11        -9.6188   -1.6850   53.3615 O.2     1  ZINC000373715094   -0.5200
     12 C12        -8.9984    0.5878   53.5017 C.3     1  ZINC000373715094   -0.0600
     13 C13        -7.6518    0.3491   52.8686 C.2     1  ZINC000373715094    0.1200
     14 N14        -7.1795   -0.8005   52.4794 N.2     1  ZINC000373715094   -0.2300
     15 N15        -5.8999   -0.6364   51.9392 N.pl3   1  ZINC000373715094   -0.5100
     16 C16        -5.5565    0.6892   51.9953 C.ar    1  ZINC000373715094    0.1300
     17 C17        -4.4299    1.4111   51.6099 C.ar    1  ZINC000373715094   -0.1400
     18 C18        -4.3894    2.7630   51.8037 C.ar    1  ZINC000373715094   -0.0700
     19 C19        -5.4608    3.4313   52.3829 C.ar    1  ZINC000373715094   -0.1600
     20 C20        -6.5781    2.7497   52.7706 C.ar    1  ZINC000373715094   -0.0400
     21 C21        -6.6465    1.3660   52.5765 C.ar    1  ZINC000373715094   -0.1600
     22 C22       -10.6268   -0.6891   58.0507 C.3     1  ZINC000373715094    0.1800
     23 H23       -10.5342    0.1076   57.3126 H       1  ZINC000373715094    0.1000
     24 C24        -9.7892   -0.3752   59.2636 C.ar    1  ZINC000373715094   -0.1000
     25 C25       -10.3524   -0.4275   60.5249 C.ar    1  ZINC000373715094   -0.1000
     26 C26        -9.5841   -0.1396   61.6374 C.ar    1  ZINC000373715094   -0.1200
     27 C27        -8.2524    0.2001   61.4886 C.ar    1  ZINC000373715094   -0.1100
     28 C28        -7.6890    0.2514   60.2274 C.ar    1  ZINC000373715094   -0.1200
     29 C29        -8.4561   -0.0406   59.1153 C.ar    1  ZINC000373715094   -0.1100
     30 H30       -13.4594    0.5378   57.8220 H       1  ZINC000373715094    0.0600
     31 H31       -13.6880   -0.0948   59.4700 H       1  ZINC000373715094    0.0800
     32 H32       -12.3913    1.0790   59.1391 H       1  ZINC000373715094    0.0700
     33 H33       -10.7193   -3.4549   59.0112 H       1  ZINC000373715094    0.1100
     34 H34       -11.4693   -3.8081   57.4230 H       1  ZINC000373715094    0.1100
     35 H35        -9.8472   -2.8682   55.4809 H       1  ZINC000373715094    0.0700
     36 H36       -11.4522   -2.1281   55.6911 H       1  ZINC000373715094    0.0800
     37 H37        -9.8074    0.0093   55.9339 H       1  ZINC000373715094    0.4000
     38 H38        -9.6927    0.9613   52.7490 H       1  ZINC000373715094    0.1200
     39 H39        -8.8991    1.3223   54.3009 H       1  ZINC000373715094    0.1200
     40 H40        -5.3443   -1.3470   51.5823 H       1  ZINC000373715094    0.4400
     41 H41        -3.5899    0.9035   51.1591 H       1  ZINC000373715094    0.1300
     42 H42        -3.5135    3.3188   51.5032 H       1  ZINC000373715094    0.1300
     43 H43        -5.4090    4.5003   52.5282 H       1  ZINC000373715094    0.1300
     44 H44        -7.4068    3.2766   53.2201 H       1  ZINC000373715094    0.1300
     45 H45       -11.3928   -0.6929   60.6411 H       1  ZINC000373715094    0.1200
     46 H46       -10.0244   -0.1798   62.6228 H       1  ZINC000373715094    0.1200
     47 H47        -7.6523    0.4257   62.3578 H       1  ZINC000373715094    0.1200
     48 H48        -6.6487    0.5172   60.1112 H       1  ZINC000373715094    0.1300
     49 H49        -8.0160   -0.0005   58.1299 H       1  ZINC000373715094    0.1300
@<TRIPOS>BOND
     1     1     2    1
     2     1    30    1
     3     1    31    1
     4     1    32    1
     5     2    22    1
     6     2     3   am
     7     3     4    2
     8     3     5    1
     9     5     6    1
    10     5    33    1
    11     5    34    1
    12     6     7    1
    13     6     8    1
    14     6    22    1
    15     8     9    1
    16     8    35    1
    17     8    36    1
    18     9    10   am
    19     9    37    1
    20    10    11    2
    21    10    12    1
    22    12    13    1
    23    12    38    1
    24    12    39    1
    25    13    21    1
    26    13    14    2
    27    14    15    1
    28    15    16    1
    29    15    40    1
    30    16    21   ar
    31    16    17   ar
    32    17    18   ar
    33    17    41    1
    34    18    19   ar
    35    18    42    1
    36    19    20   ar
    37    19    43    1
    38    20    21   ar
    39    20    44    1
    40    22    23    1
    41    22    24    1
    42    24    29   ar
    43    24    25   ar
    44    25    26   ar
    45    25    45    1
    46    26    27   ar
    47    26    46    1
    48    27    28   ar
    49    27    47    1
    50    28    29   ar
    51    28    48    1
    52    29    49    1
@<TRIPOS>SUBSTRUCTURE
     1 ZINC000373715094        1 TEMP              0 ****  ****    0 ROOT


##########                                Name:    ZINC001004075025
##########                DOCK_Rotatable_Bonds:                   8
##########                         Heavy_Atoms:                  25
##########                    Molecular_Weight:              349.43
##########                DOCK_Rotatable_Bonds:                   8
##########                       Formal_Charge:         -0.00999999
##########                     HBond_Acceptors:                   7
##########                        HBond_Donors:                   1
##########                         Heavy_Atoms:                  25
##########                          Grid_Score:          -32.755653
##########                     Grid_vdw_energy:          -31.366133
##########                      Grid_es_energy:           -1.389521
##########           Internal_energy_repulsive:            8.476756

@<TRIPOS>MOLECULE
ZINC001004075025
 52 54 1 0 0
SMALL
USER_CHARGES


@<TRIPOS>ATOM
      1 C1         -7.2395    1.0033   64.8320 C.3     1  ZINC001004075025   -0.1500
      2 C2         -8.5463    0.4054   64.3069 C.3     1  ZINC001004075025   -0.1200
      3 C3         -8.7077    0.7540   62.8259 C.3     1  ZINC001004075025    0.0800
      4 H4         -9.3038   -0.0065   62.3216 H       1  ZINC001004075025    0.0700
      5 C5         -9.3692    2.1465   62.6702 C.3     1  ZINC001004075025   -0.1500
      6 C6         -8.8579    2.5601   61.2633 C.3     1  ZINC001004075025   -0.1400
      7 C7         -7.4486    1.9307   61.2287 C.3     1  ZINC001004075025    0.0700
      8 H8         -6.7011    2.6837   61.4784 H       1  ZINC001004075025    0.1100
      9 C9         -7.1722    1.3710   59.8572 C.2     1  ZINC001004075025    0.5300
     10 O10        -7.4916    0.2316   59.5914 O.2     1  ZINC001004075025   -0.5200
     11 N11        -6.5699    2.1366   58.9257 N.am    1  ZINC001004075025   -0.6500
     12 C12        -6.1510    1.9682   57.5260 C.3     1  ZINC001004075025    0.1100
     13 C13        -5.0667    3.0246   57.7803 C.3     1  ZINC001004075025   -0.1400
     14 C14        -4.8690    4.0106   56.6271 C.3     1  ZINC001004075025    0.1300
     15 N15        -4.5602    3.2717   55.4004 N.am    1  ZINC001004075025   -0.7200
     16 C16        -4.1178    3.9298   54.3105 C.2     1  ZINC001004075025    0.6000
     17 O17        -3.9736    5.1367   54.3460 O.2     1  ZINC001004075025   -0.5300
     18 C18        -3.8087    3.1865   53.0758 C.2     1  ZINC001004075025   -0.2700
     19 C19        -4.6368    2.3840   52.3294 C.2     1  ZINC001004075025    0.0700
     20 C20        -6.0844    2.0717   52.6088 C.3     1  ZINC001004075025   -0.0300
     21 C21        -6.9753    2.9946   51.7748 C.3     1  ZINC001004075025   -0.1500
     22 C22        -6.3723    0.6150   52.2399 C.3     1  ZINC001004075025   -0.1500
     23 O23        -3.9042    1.9357   51.3075 O.3     1  ZINC001004075025    0.1000
     24 N24        -2.7684    2.3426   51.3233 N.2     1  ZINC001004075025   -0.3500
     25 C25        -2.5392    3.1262   52.3351 C.2     1  ZINC001004075025    0.0200
     26 C26        -6.0483    3.5100   58.8596 C.3     1  ZINC001004075025    0.1100
     27 O27        -7.4209    0.8755   62.1992 O.3     1  ZINC001004075025   -0.3400
     28 H28        -7.1245    0.7551   65.8872 H       1  ZINC001004075025    0.0600
     29 H29        -6.4007    0.5943   64.2690 H       1  ZINC001004075025    0.0500
     30 H30        -7.2624    2.0867   64.7141 H       1  ZINC001004075025    0.0600
     31 H31        -8.5234   -0.6780   64.4248 H       1  ZINC001004075025    0.0800
     32 H32        -9.3852    0.8146   64.8700 H       1  ZINC001004075025    0.0700
     33 H33       -10.4564    2.0689   62.6859 H       1  ZINC001004075025    0.0900
     34 H34        -9.0154    2.8372   63.4356 H       1  ZINC001004075025    0.0900
     35 H35        -9.4901    2.1391   60.4815 H       1  ZINC001004075025    0.0800
     36 H36        -8.8004    3.6450   61.1749 H       1  ZINC001004075025    0.0900
     37 H37        -5.7500    0.9782   57.3090 H       1  ZINC001004075025    0.0900
     38 H38        -6.9055    2.2851   56.8060 H       1  ZINC001004075025    0.0900
     39 H39        -4.1311    2.6206   58.1669 H       1  ZINC001004075025    0.1100
     40 H40        -5.7818    4.5888   56.4830 H       1  ZINC001004075025    0.0800
     41 H41        -4.0454    4.6845   56.8624 H       1  ZINC001004075025    0.0800
     42 H42        -4.6741    2.3087   55.3725 H       1  ZINC001004075025    0.4000
     43 H43        -6.2917    2.2262   53.6676 H       1  ZINC001004075025    0.1300
     44 H44        -6.7681    2.8402   50.7159 H       1  ZINC001004075025    0.0600
     45 H45        -8.0224    2.7687   51.9769 H       1  ZINC001004075025    0.0700
     46 H46        -6.7703    4.0324   52.0376 H       1  ZINC001004075025    0.0600
     47 H47        -6.1650    0.4606   51.1810 H       1  ZINC001004075025    0.0600
     48 H48        -5.7375   -0.0425   52.8340 H       1  ZINC001004075025    0.0600
     49 H49        -7.4193    0.3891   52.4419 H       1  ZINC001004075025    0.0700
     50 H50        -1.6122    3.6219   52.5828 H       1  ZINC001004075025    0.2000
     51 H51        -6.7733    4.2361   58.4921 H       1  ZINC001004075025    0.0900
     52 H52        -5.5585    3.8309   59.7790 H       1  ZINC001004075025    0.0800
@<TRIPOS>BOND
     1     1     2    1
     2     1    28    1
     3     1    29    1
     4     1    30    1
     5     2     3    1
     6     2    31    1
     7     2    32    1
     8     3     4    1
     9     3    27    1
    10     3     5    1
    11     5     6    1
    12     5    33    1
    13     5    34    1
    14     6     7    1
    15     6    35    1
    16     6    36    1
    17     7     8    1
    18     7     9    1
    19     7    27    1
    20     9    10    2
    21     9    11   am
    22    11    26    1
    23    11    12    1
    24    12    13    1
    25    12    37    1
    26    12    38    1
    27    13    14    1
    28    13    26    1
    29    13    39    1
    30    14    15    1
    31    14    40    1
    32    14    41    1
    33    15    16   am
    34    15    42    1
    35    16    17    2
    36    16    18    1
    37    18    25    1
    38    18    19    2
    39    19    20    1
    40    19    23    1
    41    20    21    1
    42    20    22    1
    43    20    43    1
    44    21    44    1
    45    21    45    1
    46    21    46    1
    47    22    47    1
    48    22    48    1
    49    22    49    1
    50    23    24    1
    51    24    25    2
    52    25    50    1
    53    26    51    1
    54    26    52    1
@<TRIPOS>SUBSTRUCTURE
     1 ZINC001004075025        1 TEMP              0 ****  ****    0 ROOT


##########                                Name:    ZINC001109082135
##########                DOCK_Rotatable_Bonds:                   9
##########                         Heavy_Atoms:                  27
##########                    Molecular_Weight:             373.455
##########                DOCK_Rotatable_Bonds:                   9
##########                       Formal_Charge:          -0.0100003
##########                     HBond_Acceptors:                   8
##########                        HBond_Donors:                   3
##########                         Heavy_Atoms:                  27
##########                          Grid_Score:          -32.737484
##########                     Grid_vdw_energy:          -32.085533
##########                      Grid_es_energy:           -0.651950
##########           Internal_energy_repulsive:           20.722612

@<TRIPOS>MOLECULE
ZINC001109082135
 54 57 1 0 0
SMALL
USER_CHARGES


@<TRIPOS>ATOM
      1 C1        -10.6368   -1.1718   60.0120 C.3     1  ZINC001109082135   -0.1400
      2 C2        -11.2046   -0.6722   58.6820 C.3     1  ZINC001109082135   -0.1400
      3 C3        -10.6042   -1.4652   57.5499 C.2     1  ZINC001109082135    0.5100
      4 O4        -10.2286   -2.6028   57.7388 O.2     1  ZINC001109082135   -0.5400
      5 N5        -10.4848   -0.9103   56.3275 N.am    1  ZINC001109082135   -0.7200
      6 C6         -9.8996   -1.6807   55.2273 C.3     1  ZINC001109082135    0.1000
      7 C7         -9.1927   -0.7459   54.2800 C.2     1  ZINC001109082135    0.5100
      8 O8         -9.1069   -1.0259   53.1030 O.2     1  ZINC001109082135   -0.5300
      9 N9         -8.6557    0.4012   54.7407 N.am    1  ZINC001109082135   -0.7100
     10 C10        -7.9699    1.3108   53.8193 C.3     1  ZINC001109082135    0.1100
     11 H11        -7.5306    0.7560   52.9903 H       1  ZINC001109082135    0.0900
     12 C12        -8.9455    2.3928   53.2949 C.3     1  ZINC001109082135   -0.1600
     13 C13        -8.3159    3.7263   53.7995 C.3     1  ZINC001109082135    0.0600
     14 H14        -8.6212    4.6240   53.2618 H       1  ZINC001109082135    0.1300
     15 C15        -8.5769    3.7405   55.3359 C.3     1  ZINC001109082135   -0.1200
     16 C16        -7.6120    2.6572   55.8770 C.3     1  ZINC001109082135   -0.1100
     17 C17        -6.8785    2.1318   54.5698 C.3     1  ZINC001109082135    0.0400
     18 H18        -5.9228    1.6342   54.7343 H       1  ZINC001109082135    0.1200
     19 N19        -6.8481    3.3921   53.7411 N.3     1  ZINC001109082135   -0.4800
     20 C20        -6.4131    3.1082   52.3670 C.3     1  ZINC001109082135    0.0800
     21 C21        -4.9078    3.0548   52.3177 C.2     1  ZINC001109082135    0.2000
     22 C22        -4.2831    2.2632   51.4021 C.2     1  ZINC001109082135   -0.2900
     23 C23        -2.8734    2.2369   51.3826 C.2     1  ZINC001109082135    0.5200
     24 O24        -2.2743    1.5421   50.5787 O.2     1  ZINC001109082135   -0.5400
     25 N25        -2.2007    2.9975   52.2726 N.am    1  ZINC001109082135   -0.6300
     26 C26        -2.8786    3.7595   53.1533 C.2     1  ZINC001109082135    0.4300
     27 C27        -2.1128    4.6027   54.1400 C.3     1  ZINC001109082135   -0.1400
     28 C28        -1.9898    4.0779   55.5719 C.3     1  ZINC001109082135   -0.1400
     29 C29        -0.7738    4.0599   54.6434 C.3     1  ZINC001109082135   -0.1400
     30 N30        -4.1846    3.7876   53.1678 N.2     1  ZINC001109082135   -0.5300
     31 H31        -9.5541   -1.0465   60.0148 H       1  ZINC001109082135    0.0600
     32 H32       -11.0711   -0.5983   60.8308 H       1  ZINC001109082135    0.0600
     33 H33       -10.8808   -2.2266   60.1379 H       1  ZINC001109082135    0.0600
     34 H34       -12.2874   -0.7975   58.6793 H       1  ZINC001109082135    0.1000
     35 H35       -10.9606    0.3827   58.5561 H       1  ZINC001109082135    0.1000
     36 H36       -10.7864   -0.0009   56.1762 H       1  ZINC001109082135    0.4100
     37 H37        -9.1857   -2.4007   55.6275 H       1  ZINC001109082135    0.1000
     38 H38       -10.6892   -2.2098   54.6940 H       1  ZINC001109082135    0.1000
     39 H39        -8.7232    0.6245   55.6821 H       1  ZINC001109082135    0.4000
     40 H40        -8.9875    2.3763   52.2058 H       1  ZINC001109082135    0.0800
     41 H41        -9.9391    2.2524   53.7204 H       1  ZINC001109082135    0.0800
     42 H42        -8.3338    4.7160   55.7573 H       1  ZINC001109082135    0.0700
     43 H43        -9.6118    3.4752   55.5518 H       1  ZINC001109082135    0.0700
     44 H44        -6.8908    3.0956   56.5667 H       1  ZINC001109082135    0.0700
     45 H45        -8.1688    1.8548   56.3611 H       1  ZINC001109082135    0.0700
     46 H46        -6.8213    2.1494   52.0475 H       1  ZINC001109082135    0.1000
     47 H47        -6.7707    3.8949   51.7028 H       1  ZINC001109082135    0.0700
     48 H48        -4.8554    1.6680   50.7059 H       1  ZINC001109082135    0.1600
     49 H49        -1.2307    2.9953   52.2782 H       1  ZINC001109082135    0.4200
     50 H50        -2.2000    5.6807   54.0045 H       1  ZINC001109082135    0.1300
     51 H51        -1.9961    4.8107   56.3788 H       1  ZINC001109082135    0.1100
     52 H52        -2.4628    3.1228   55.8003 H       1  ZINC001109082135    0.1100
     53 H53        -0.4468    3.0930   54.2610 H       1  ZINC001109082135    0.1100
     54 H54         0.0198    4.7809   54.8395 H       1  ZINC001109082135    0.1100
@<TRIPOS>BOND
     1     1     2    1
     2     1    31    1
     3     1    32    1
     4     1    33    1
     5     2     3    1
     6     2    34    1
     7     2    35    1
     8     3     4    2
     9     3     5   am
    10     5     6    1
    11     5    36    1
    12     6     7    1
    13     6    37    1
    14     6    38    1
    15     7     8    2
    16     7     9   am
    17     9    10    1
    18     9    39    1
    19    10    11    1
    20    10    17    1
    21    10    12    1
    22    12    13    1
    23    12    40    1
    24    12    41    1
    25    13    14    1
    26    13    19    1
    27    13    15    1
    28    15    16    1
    29    15    42    1
    30    15    43    1
    31    16    17    1
    32    16    44    1
    33    16    45    1
    34    17    18    1
    35    17    19    1
    36    19    20    1
    37    20    21    1
    38    20    46    1
    39    20    47    1
    40    21    30    1
    41    21    22    2
    42    22    23    1
    43    22    48    1
    44    23    24    2
    45    23    25   am
    46    25    26    1
    47    25    49    1
    48    26    27    1
    49    26    30    2
    50    27    29    1
    51    27    28    1
    52    27    50    1
    53    28    29    1
    54    28    51    1
    55    28    52    1
    56    29    53    1
    57    29    54    1
@<TRIPOS>SUBSTRUCTURE
     1 ZINC001109082135        1 TEMP              0 ****  ****    0 ROOT


##########                                Name:    ZINC000541252362
##########                DOCK_Rotatable_Bonds:                   5
##########                         Heavy_Atoms:                  27
##########                    Molecular_Weight:             401.254
##########                DOCK_Rotatable_Bonds:                   5
##########                       Formal_Charge:          -0.0199999
##########                     HBond_Acceptors:                   9
##########                        HBond_Donors:                   1
##########                         Heavy_Atoms:                  27
##########                          Grid_Score:          -32.731956
##########                     Grid_vdw_energy:          -31.150963
##########                      Grid_es_energy:           -1.580992
##########           Internal_energy_repulsive:            3.114339

@<TRIPOS>MOLECULE
ZINC000541252362
 41 44 1 0 0
SMALL
USER_CHARGES


@<TRIPOS>ATOM
      1 C1         -6.9997    1.5338   63.6410 C.3     1  ZINC000541252362    0.1000
      2 N2         -7.5024    1.3443   62.2780 N.pl3   1  ZINC000541252362   -0.3800
      3 C3         -7.1430    2.0396   61.1839 C.2     1  ZINC000541252362    0.2600
      4 N4         -7.8115    1.5721   60.1630 N.2     1  ZINC000541252362   -0.5300
      5 C5         -8.6114    0.5746   60.5631 C.2     1  ZINC000541252362    0.2700
      6 C6         -9.5240   -0.2054   59.6906 C.ar    1  ZINC000541252362    0.0000
      7 C7        -10.3497   -1.1839   60.2408 C.ar    1  ZINC000541252362   -0.1000
      8 C8        -11.1986   -1.9086   59.4278 C.ar    1  ZINC000541252362   -0.1000
      9 C9        -11.2326   -1.6672   58.0677 C.ar    1  ZINC000541252362   -0.1300
     10 C10       -10.4127   -0.6932   57.5106 C.ar    1  ZINC000541252362    0.1400
     11 N11       -10.4498   -0.4514   56.1327 N.am    1  ZINC000541252362   -0.6800
     12 C12        -9.8422   -1.3025   55.2825 C.2     1  ZINC000541252362    0.5100
     13 O13        -9.2630   -2.2779   55.7116 O.2     1  ZINC000541252362   -0.4900
     14 C14        -9.8821   -1.0420   53.7988 C.3     1  ZINC000541252362   -0.0600
     15 C15        -8.6710   -0.2406   53.3965 C.2     1  ZINC000541252362    0.0700
     16 C16        -7.6230   -0.7019   52.6790 C.2     1  ZINC000541252362   -0.0700
     17 N17        -6.7444    0.3366   52.5334 N.pl3   1  ZINC000541252362   -0.3500
     18 C18        -5.5340    0.4419   51.9094 C.2     1  ZINC000541252362    0.0700
     19 C19        -4.8564    1.6099   51.9156 C.2     1  ZINC000541252362   -0.0500
     20 Cl20       -3.3195    1.7217   51.1162 Cl      1  ZINC000541252362   -0.0200
     21 C21        -5.3903    2.7355   52.5661 C.2     1  ZINC000541252362   -0.0900
     22 C22        -6.5957    2.6439   53.1914 C.2     1  ZINC000541252362    0.0200
     23 Cl23       -7.2713    4.0239   53.9995 Cl      1  ZINC000541252362   -0.0100
     24 C24        -7.2904    1.4167   53.1760 C.2     1  ZINC000541252362    0.2200
     25 N25        -8.4571    1.0452   53.6847 N.2     1  ZINC000541252362   -0.4300
     26 C26        -9.5617    0.0426   58.3210 C.ar    1  ZINC000541252362   -0.0800
     27 N27        -8.4495    0.3973   61.8560 N.2     1  ZINC000541252362   -0.3100
     28 H28        -6.1205    0.9080   63.7942 H       1  ZINC000541252362    0.0800
     29 H29        -6.7309    2.5800   63.7869 H       1  ZINC000541252362    0.0900
     30 H30        -7.7736    1.2543   64.3558 H       1  ZINC000541252362    0.0900
     31 H31        -6.4252    2.8460   61.1543 H       1  ZINC000541252362    0.2200
     32 H32       -10.3252   -1.3759   61.3033 H       1  ZINC000541252362    0.1300
     33 H33       -11.8377   -2.6666   59.8562 H       1  ZINC000541252362    0.1300
     34 H34       -11.8978   -2.2371   57.4360 H       1  ZINC000541252362    0.1300
     35 H35       -10.9130    0.3288   55.7896 H       1  ZINC000541252362    0.4100
     36 H36        -9.8838   -1.9915   53.2632 H       1  ZINC000541252362    0.1200
     37 H37       -10.7854   -0.4842   53.5519 H       1  ZINC000541252362    0.1200
     38 H38        -7.5014   -1.7034   52.2932 H       1  ZINC000541252362    0.1900
     39 H39        -5.1148   -0.4171   51.4066 H       1  ZINC000541252362    0.1800
     40 H40        -4.8465    3.6687   52.5701 H       1  ZINC000541252362    0.1600
     41 H41        -8.9240    0.8002   57.8902 H       1  ZINC000541252362    0.1500
@<TRIPOS>BOND
     1     1     2    1
     2     1    28    1
     3     1    29    1
     4     1    30    1
     5     2    27    1
     6     2     3    1
     7     3     4    2
     8     3    31    1
     9     4     5    1
    10     5     6    1
    11     5    27    2
    12     6    26   ar
    13     6     7   ar
    14     7     8   ar
    15     7    32    1
    16     8     9   ar
    17     8    33    1
    18     9    10   ar
    19     9    34    1
    20    10    11    1
    21    10    26   ar
    22    11    12   am
    23    11    35    1
    24    12    13    2
    25    12    14    1
    26    14    15    1
    27    14    36    1
    28    14    37    1
    29    15    25    1
    30    15    16    2
    31    16    17    1
    32    16    38    1
    33    17    24    1
    34    17    18    1
    35    18    19    2
    36    18    39    1
    37    19    20    1
    38    19    21    1
    39    21    22    2
    40    21    40    1
    41    22    23    1
    42    22    24    1
    43    24    25    2
    44    26    41    1
@<TRIPOS>SUBSTRUCTURE
     1 ZINC000541252362        1 TEMP              0 ****  ****    0 ROOT


##########                                Name:    ZINC001119787528
##########                DOCK_Rotatable_Bonds:                   6
##########                         Heavy_Atoms:                  27
##########                    Molecular_Weight:             362.434
##########                DOCK_Rotatable_Bonds:                   6
##########                       Formal_Charge:          -0.0199998
##########                     HBond_Acceptors:                   7
##########                        HBond_Donors:                   1
##########                         Heavy_Atoms:                  27
##########                          Grid_Score:          -32.689926
##########                     Grid_vdw_energy:          -31.859215
##########                      Grid_es_energy:           -0.830713
##########           Internal_energy_repulsive:            9.645897

@<TRIPOS>MOLECULE
ZINC001119787528
 49 52 1 0 0
SMALL
USER_CHARGES


@<TRIPOS>ATOM
      1 C1         -4.6928    1.7072   51.5955 C.3     1  ZINC001119787528   -0.1700
      2 C2         -5.9246    1.9950   52.4560 C.3     1  ZINC001119787528    0.1000
      3 N3         -6.7366    0.7807   52.5680 N.pl3   1  ZINC001119787528   -0.4500
      4 C4         -6.3978   -0.4559   52.1361 C.2     1  ZINC001119787528    0.1800
      5 N5         -7.3757   -1.2798   52.4101 N.2     1  ZINC001119787528   -0.4800
      6 C6         -8.3562   -0.6073   53.0166 C.2     1  ZINC001119787528   -0.0200
      7 C7         -7.9726    0.6822   53.1320 C.2     1  ZINC001119787528   -0.0100
      8 C8         -8.7949    1.7709   53.7700 C.3     1  ZINC001119787528   -0.0600
      9 C9        -10.2548    1.3062   53.8488 C.3     1  ZINC001119787528    0.1400
     10 N10       -10.2930   -0.0799   54.3384 N.am    1  ZINC001119787528   -0.6200
     11 C11       -10.8710   -0.3793   55.5185 C.2     1  ZINC001119787528    0.7200
     12 O12       -11.3693    0.5015   56.1921 O.2     1  ZINC001119787528   -0.5600
     13 N13       -10.8967   -1.6553   55.9518 N.am    1  ZINC001119787528   -0.6600
     14 C14       -11.4929   -1.9642   57.1689 C.ar    1  ZINC001119787528    0.4200
     15 C15       -10.7899   -1.8036   58.3632 C.ar    1  ZINC001119787528   -0.2500
     16 C16       -11.4265   -2.1238   59.5473 C.ar    1  ZINC001119787528    0.1600
     17 N17       -12.6738   -2.5694   59.5104 N.ar    1  ZINC001119787528   -0.5300
     18 C18       -13.3106   -2.7101   58.3650 C.ar    1  ZINC001119787528    0.3500
     19 C19       -14.7287   -3.2201   58.3731 C.3     1  ZINC001119787528   -0.0100
     20 C20       -15.5650   -2.3935   57.4306 C.ar    1  ZINC001119787528   -0.0800
     21 C21       -15.9919   -2.9327   56.2315 C.ar    1  ZINC001119787528   -0.1000
     22 C22       -16.7590   -2.1746   55.3669 C.ar    1  ZINC001119787528   -0.1200
     23 C23       -17.0997   -0.8773   55.7015 C.ar    1  ZINC001119787528   -0.1200
     24 C24       -16.6735   -0.3385   56.9011 C.ar    1  ZINC001119787528   -0.1200
     25 C25       -15.9100   -1.0980   57.7676 C.ar    1  ZINC001119787528   -0.1000
     26 N26       -12.7437   -2.4120   57.2138 N.ar    1  ZINC001119787528   -0.5500
     27 C27        -9.6820   -1.1351   53.5115 C.3     1  ZINC001119787528    0.2000
     28 H28        -4.0886    2.6106   51.5120 H       1  ZINC001119787528    0.0800
     29 H29        -4.1024    0.9167   52.0590 H       1  ZINC001119787528    0.0600
     30 H30        -5.0096    1.3890   50.6023 H       1  ZINC001119787528    0.0600
     31 H31        -5.6078    2.3132   53.4492 H       1  ZINC001119787528    0.0900
     32 H32        -6.5150    2.7853   51.9923 H       1  ZINC001119787528    0.1000
     33 H33        -5.4724   -0.7192   51.6454 H       1  ZINC001119787528    0.2100
     34 H34        -8.4204    1.9707   54.7740 H       1  ZINC001119787528    0.0800
     35 H35        -8.7319    2.6770   53.1675 H       1  ZINC001119787528    0.0900
     36 H36       -10.8058    1.9501   54.5343 H       1  ZINC001119787528    0.1100
     37 H37       -10.7068    1.3552   52.8582 H       1  ZINC001119787528    0.0800
     38 H38       -10.4991   -2.3581   55.4143 H       1  ZINC001119787528    0.4200
     39 H39        -9.7735   -1.4385   58.3623 H       1  ZINC001119787528    0.1800
     40 H40       -10.9135   -2.0126   60.4912 H       1  ZINC001119787528    0.1700
     41 H41       -14.7419   -4.2617   58.0522 H       1  ZINC001119787528    0.1000
     42 H42       -15.1360   -3.1452   59.3813 H       1  ZINC001119787528    0.1000
     43 H43       -15.7257   -3.9462   55.9699 H       1  ZINC001119787528    0.1300
     44 H44       -17.0919   -2.5956   54.4296 H       1  ZINC001119787528    0.1200
     45 H45       -17.6984   -0.2848   55.0257 H       1  ZINC001119787528    0.1200
     46 H46       -16.9394    0.6752   57.1624 H       1  ZINC001119787528    0.1200
     47 H47       -15.5771   -0.6770   58.7048 H       1  ZINC001119787528    0.1200
     48 H48       -10.3264   -1.3599   52.6616 H       1  ZINC001119787528    0.0900
     49 H49        -9.5289   -2.0331   54.1098 H       1  ZINC001119787528    0.0900
@<TRIPOS>BOND
     1     1     2    1
     2     1    28    1
     3     1    29    1
     4     1    30    1
     5     2     3    1
     6     2    31    1
     7     2    32    1
     8     3     7    1
     9     3     4    1
    10     4     5    2
    11     4    33    1
    12     5     6    1
    13     6    27    1
    14     6     7    2
    15     7     8    1
    16     8     9    1
    17     8    34    1
    18     8    35    1
    19     9    10    1
    20     9    36    1
    21     9    37    1
    22    10    11   am
    23    10    27    1
    24    11    12    2
    25    11    13   am
    26    13    14    1
    27    13    38    1
    28    14    26   ar
    29    14    15   ar
    30    15    16   ar
    31    15    39    1
    32    16    17   ar
    33    16    40    1
    34    17    18   ar
    35    18    19    1
    36    18    26   ar
    37    19    20    1
    38    19    41    1
    39    19    42    1
    40    20    25   ar
    41    20    21   ar
    42    21    22   ar
    43    21    43    1
    44    22    23   ar
    45    22    44    1
    46    23    24   ar
    47    23    45    1
    48    24    25   ar
    49    24    46    1
    50    25    47    1
    51    27    48    1
    52    27    49    1
@<TRIPOS>SUBSTRUCTURE
     1 ZINC001119787528        1 TEMP              0 ****  ****    0 ROOT


##########                                Name:    ZINC000409064708
##########                DOCK_Rotatable_Bonds:                   8
##########                         Heavy_Atoms:                  29
##########                    Molecular_Weight:             415.442
##########                DOCK_Rotatable_Bonds:                   8
##########                       Formal_Charge:                0.03
##########                     HBond_Acceptors:                   8
##########                        HBond_Donors:                   0
##########                         Heavy_Atoms:                  29
##########                          Grid_Score:          -32.674702
##########                     Grid_vdw_energy:          -31.555077
##########                      Grid_es_energy:           -1.119624
##########           Internal_energy_repulsive:           20.068417

@<TRIPOS>MOLECULE
ZINC000409064708
 47 49 1 0 0
SMALL
USER_CHARGES


@<TRIPOS>ATOM
      1 C1        -14.3211   -0.5995   60.7338 C.3     1  ZINC000409064708    0.0400
      2 O2        -14.5793   -0.3676   59.3239 O.3     1  ZINC000409064708   -0.3500
      3 C3        -14.9704   -1.4241   58.5941 C.2     1  ZINC000409064708    0.4600
      4 O4        -16.0824   -1.4544   58.1227 O.2     1  ZINC000409064708   -0.4900
      5 C5        -14.0223   -2.5725   58.3627 C.3     1  ZINC000409064708    0.1400
      6 H6        -13.7230   -2.9953   59.3218 H       1  ZINC000409064708    0.1500
      7 C7        -14.7183   -3.6478   57.5261 C.3     1  ZINC000409064708   -0.1600
      8 N8        -12.8364   -2.0907   57.6501 N.am    1  ZINC000409064708   -0.5600
      9 C9        -11.6123   -2.4044   58.0898 C.2     1  ZINC000409064708    0.5400
     10 O10       -11.3439   -3.0800   59.0650 O.2     1  ZINC000409064708   -0.4200
     11 S11       -10.4568   -1.6482   56.9790 S.3     1  ZINC000409064708   -0.0100
     12 C12       -11.7060   -0.9252   55.9461 C.2     1  ZINC000409064708   -0.2400
     13 C13       -11.5335   -0.1623   54.8370 C.2     1  ZINC000409064708    0.0900
     14 C14       -10.1788    0.1511   54.3648 C.ar    1  ZINC000409064708   -0.1400
     15 C15        -9.6092    1.3998   54.6425 C.ar    1  ZINC000409064708    0.0000
     16 C16        -8.3388    1.6883   54.1973 C.ar    1  ZINC000409064708   -0.1600
     17 C17        -7.6220    0.7428   53.4730 C.ar    1  ZINC000409064708    0.1600
     18 O18        -6.3695    1.0326   53.0365 O.3     1  ZINC000409064708   -0.3000
     19 C19        -5.9360    2.3884   53.1626 C.3     1  ZINC000409064708    0.1000
     20 C20        -4.5165    2.5097   52.6713 C.ar    1  ZINC000409064708   -0.0700
     21 C21        -3.6348    3.3614   53.3099 C.ar    1  ZINC000409064708   -0.1000
     22 C22        -2.3322    3.4739   52.8602 C.ar    1  ZINC000409064708   -0.0900
     23 C23        -1.9103    2.7345   51.7718 C.ar    1  ZINC000409064708   -0.1400
     24 C24        -2.7925    1.8804   51.1315 C.ar    1  ZINC000409064708    0.1000
     25 F25        -2.3811    1.1571   50.0672 F       1  ZINC000409064708   -0.1400
     26 C26        -4.0951    1.7649   51.5859 C.ar    1  ZINC000409064708   -0.1300
     27 C27        -8.1825   -0.4984   53.1944 C.ar    1  ZINC000409064708   -0.2200
     28 C28        -9.4497   -0.7998   53.6401 C.ar    1  ZINC000409064708   -0.0400
     29 C29       -12.9681   -1.3470   56.5644 C.2     1  ZINC000409064708    0.5600
     30 O30       -14.0543   -1.0304   56.1159 O.2     1  ZINC000409064708   -0.4600
     31 H31       -15.2283   -0.9672   61.2136 H       1  ZINC000409064708    0.0700
     32 H32       -13.5280   -1.3395   60.8411 H       1  ZINC000409064708    0.0700
     33 H33       -14.0135    0.3338   61.2052 H       1  ZINC000409064708    0.1100
     34 H34       -15.6006   -4.0063   58.0563 H       1  ZINC000409064708    0.1000
     35 H35       -15.0176   -3.2249   56.5671 H       1  ZINC000409064708    0.0800
     36 H36       -14.0326   -4.4783   57.3587 H       1  ZINC000409064708    0.0800
     37 H37       -12.3926    0.2144   54.3017 H       1  ZINC000409064708    0.1600
     38 H38       -10.1656    2.1354   55.2044 H       1  ZINC000409064708    0.1300
     39 H39        -7.8985    2.6510   54.4109 H       1  ZINC000409064708    0.1400
     40 H40        -6.5827    3.0334   52.5679 H       1  ZINC000409064708    0.0800
     41 H41        -5.9852    2.6897   54.2090 H       1  ZINC000409064708    0.0800
     42 H42        -3.9638    3.9399   54.1604 H       1  ZINC000409064708    0.1300
     43 H43        -1.6443    4.1399   53.3596 H       1  ZINC000409064708    0.1400
     44 H44        -0.8929    2.8229   51.4202 H       1  ZINC000409064708    0.1400
     45 H45        -4.7840    1.0989   51.0876 H       1  ZINC000409064708    0.1400
     46 H46        -7.6213   -1.2291   52.6311 H       1  ZINC000409064708    0.1300
     47 H47        -9.8843   -1.7644   53.4232 H       1  ZINC000409064708    0.1300
@<TRIPOS>BOND
     1     1     2    1
     2     1    31    1
     3     1    32    1
     4     1    33    1
     5     2     3    1
     6     3     4    2
     7     3     5    1
     8     5     6    1
     9     5     7    1
    10     5     8    1
    11     7    34    1
    12     7    35    1
    13     7    36    1
    14     8    29   am
    15     8     9   am
    16     9    10    2
    17     9    11    1
    18    11    12    1
    19    12    13    2
    20    12    29    1
    21    13    14    1
    22    13    37    1
    23    14    28   ar
    24    14    15   ar
    25    15    16   ar
    26    15    38    1
    27    16    17   ar
    28    16    39    1
    29    17    18    1
    30    17    27   ar
    31    18    19    1
    32    19    20    1
    33    19    40    1
    34    19    41    1
    35    20    26   ar
    36    20    21   ar
    37    21    22   ar
    38    21    42    1
    39    22    23   ar
    40    22    43    1
    41    23    24   ar
    42    23    44    1
    43    24    25    1
    44    24    26   ar
    45    26    45    1
    46    27    28   ar
    47    27    46    1
    48    28    47    1
    49    29    30    2
@<TRIPOS>SUBSTRUCTURE
     1 ZINC000409064708        1 TEMP              0 ****  ****    0 ROOT


##########                                Name:    ZINC000981700465
##########                DOCK_Rotatable_Bonds:                   9
##########                         Heavy_Atoms:                  26
##########                    Molecular_Weight:             356.428
##########                DOCK_Rotatable_Bonds:                   9
##########                       Formal_Charge:               -0.01
##########                     HBond_Acceptors:                   8
##########                        HBond_Donors:                   3
##########                         Heavy_Atoms:                  26
##########                          Grid_Score:          -32.650864
##########                     Grid_vdw_energy:          -32.779854
##########                      Grid_es_energy:            0.128990
##########           Internal_energy_repulsive:           14.950004

@<TRIPOS>MOLECULE
ZINC000981700465
 50 52 1 0 0
SMALL
USER_CHARGES


@<TRIPOS>ATOM
      1 C1        -12.7423   -1.7604   58.9902 C.3     1  ZINC000981700465   -0.1500
      2 C2        -11.4833   -1.6951   59.8572 C.3     1  ZINC000981700465   -0.1100
      3 C3        -10.3663   -0.9931   59.0824 C.3     1  ZINC000981700465   -0.0500
      4 C4        -10.0179   -1.8021   57.8596 C.2     1  ZINC000981700465    0.1400
      5 N5        -10.1048   -3.0989   57.7481 N.2     1  ZINC000981700465   -0.2900
      6 N6         -9.6927   -3.4720   56.4639 N.pl3   1  ZINC000981700465   -0.4600
      7 C7         -9.3493   -2.3639   55.7882 C.2     1  ZINC000981700465    0.1000
      8 C8         -9.5458   -1.2884   56.6310 C.2     1  ZINC000981700465   -0.2900
      9 C9         -9.2993    0.1298   56.3123 C.2     1  ZINC000981700465    0.5900
     10 O10        -9.5871    0.9931   57.1188 O.2     1  ZINC000981700465   -0.5300
     11 N11        -8.7549    0.4693   55.1270 N.am    1  ZINC000981700465   -0.7300
     12 C12        -8.5116    1.8786   54.8096 C.3     1  ZINC000981700465    0.1300
     13 C13        -8.3199    2.0356   53.2998 C.3     1  ZINC000981700465   -0.1100
     14 H14        -9.1458    1.5712   52.7610 H       1  ZINC000981700465    0.0900
     15 C15        -8.1993    3.5328   52.9214 C.3     1  ZINC000981700465   -0.1200
     16 C16        -7.4332    3.4847   51.5762 C.3     1  ZINC000981700465   -0.1300
     17 C17        -6.4095    2.3460   51.7642 C.3     1  ZINC000981700465    0.1400
     18 H18        -6.2931    1.7911   50.8333 H       1  ZINC000981700465    0.1000
     19 N19        -5.1186    2.8962   52.1849 N.am    1  ZINC000981700465   -0.7100
     20 C20        -3.9733    2.3558   51.7236 C.2     1  ZINC000981700465    0.5600
     21 O21        -4.0114    1.4113   50.9600 O.2     1  ZINC000981700465   -0.5200
     22 C22        -2.6680    2.9132   52.1475 C.ar    1  ZINC000981700465   -0.1400
     23 C23        -1.4799    2.5479   51.5016 C.ar    1  ZINC000981700465   -0.0600
     24 C24        -0.2981    3.1115   51.9544 C.ar    1  ZINC000981700465    0.0400
     25 N25        -0.3174    3.9617   52.9624 N.ar    1  ZINC000981700465   -0.2200
     26 N26        -1.4017    4.3004   53.5582 N.ar    1  ZINC000981700465   -0.2400
     27 C27        -2.5799    3.8263   53.2021 C.ar    1  ZINC000981700465    0.0700
     28 C28        -6.9748    1.4215   52.8596 C.3     1  ZINC000981700465   -0.1200
     29 H29       -12.5270   -2.3174   58.0783 H       1  ZINC000981700465    0.0600
     30 H30       -13.5380   -2.2604   59.5422 H       1  ZINC000981700465    0.0600
     31 H31       -13.0587   -0.7497   58.7323 H       1  ZINC000981700465    0.0500
     32 H32       -11.6985   -1.1380   60.7690 H       1  ZINC000981700465    0.0600
     33 H33       -11.1669   -2.7058   60.1150 H       1  ZINC000981700465    0.0600
     34 H34       -10.7024   -0.0017   58.7785 H       1  ZINC000981700465    0.1000
     35 H35        -9.4863   -0.8991   59.7186 H       1  ZINC000981700465    0.0800
     36 H36        -9.6606   -4.3784   56.1199 H       1  ZINC000981700465    0.4500
     37 H37        -8.9897   -2.3213   54.7707 H       1  ZINC000981700465    0.1800
     38 H38        -8.5242   -0.2195   54.4842 H       1  ZINC000981700465    0.4000
     39 H39        -9.3644    2.4761   55.1317 H       1  ZINC000981700465    0.0700
     40 H40        -7.6142    2.2180   55.3270 H       1  ZINC000981700465    0.0700
     41 H41        -9.1852    3.9782   52.7888 H       1  ZINC000981700465    0.0700
     42 H42        -7.6266    4.0762   53.6729 H       1  ZINC000981700465    0.0700
     43 H43        -8.1145    3.2538   50.7572 H       1  ZINC000981700465    0.0800
     44 H44        -6.9227    4.4304   51.3939 H       1  ZINC000981700465    0.0700
     45 H45        -5.0880    3.6494   52.7953 H       1  ZINC000981700465    0.4000
     46 H46        -1.4851    1.8494   50.6778 H       1  ZINC000981700465    0.1700
     47 H47         0.6387    2.8546   51.4822 H       1  ZINC000981700465    0.1800
     48 H48        -3.4710    4.1356   53.7280 H       1  ZINC000981700465    0.1700
     49 H49        -6.2892    1.3828   53.7059 H       1  ZINC000981700465    0.0800
     50 H50        -7.1310    0.4200   52.4589 H       1  ZINC000981700465    0.0800
@<TRIPOS>BOND
     1     1     2    1
     2     1    29    1
     3     1    30    1
     4     1    31    1
     5     2     3    1
     6     2    32    1
     7     2    33    1
     8     3     4    1
     9     3    34    1
    10     3    35    1
    11     4     8    1
    12     4     5    2
    13     5     6    1
    14     6     7    1
    15     6    36    1
    16     7     8    2
    17     7    37    1
    18     8     9    1
    19     9    10    2
    20     9    11   am
    21    11    12    1
    22    11    38    1
    23    12    13    1
    24    12    39    1
    25    12    40    1
    26    13    14    1
    27    13    28    1
    28    13    15    1
    29    15    16    1
    30    15    41    1
    31    15    42    1
    32    16    17    1
    33    16    43    1
    34    16    44    1
    35    17    18    1
    36    17    19    1
    37    17    28    1
    38    19    20   am
    39    19    45    1
    40    20    21    2
    41    20    22    1
    42    22    27   ar
    43    22    23   ar
    44    23    24   ar
    45    23    46    1
    46    24    25   ar
    47    24    47    1
    48    25    26   ar
    49    26    27   ar
    50    27    48    1
    51    28    49    1
    52    28    50    1
@<TRIPOS>SUBSTRUCTURE
     1 ZINC000981700465        1 TEMP              0 ****  ****    0 ROOT


##########                                Name:    ZINC000508782983
##########                DOCK_Rotatable_Bonds:                   9
##########                         Heavy_Atoms:                  27
##########                    Molecular_Weight:             373.458
##########                DOCK_Rotatable_Bonds:                   9
##########                       Formal_Charge:          -0.0200006
##########                     HBond_Acceptors:                   9
##########                        HBond_Donors:                   2
##########                         Heavy_Atoms:                  27
##########                          Grid_Score:          -32.614403
##########                     Grid_vdw_energy:          -30.464344
##########                      Grid_es_energy:           -2.150058
##########           Internal_energy_repulsive:           14.173760

@<TRIPOS>MOLECULE
ZINC000508782983
 54 56 1 0 0
SMALL
USER_CHARGES


@<TRIPOS>ATOM
      1 C1         -7.7239    4.5553   53.7188 C.3     1  ZINC000508782983   -0.1500
      2 C2         -7.4464    3.2654   52.9441 C.3     1  ZINC000508782983   -0.1100
      3 C3         -6.4959    3.5625   51.7826 C.3     1  ZINC000508782983   -0.1500
      4 C4         -6.8046    2.2376   53.8782 C.3     1  ZINC000508782983    0.1000
      5 N5         -6.7267    0.9419   53.1990 N.pl3   1  ZINC000508782983   -0.4400
      6 C6         -5.6119    0.3901   52.6276 C.2     1  ZINC000508782983   -0.0400
      7 C7         -5.9831   -0.8007   52.1197 C.2     1  ZINC000508782983   -0.0300
      8 N8         -7.2889   -0.9712   52.3741 N.2     1  ZINC000508782983   -0.4700
      9 C9         -7.7398    0.0663   53.0246 C.2     1  ZINC000508782983    0.1700
     10 C10        -9.1584    0.2595   53.4950 C.3     1  ZINC000508782983    0.2100
     11 N11        -9.3462   -0.4276   54.7752 N.am    1  ZINC000508782983   -0.6900
     12 C12       -10.1028   -1.5412   54.8377 C.2     1  ZINC000508782983    0.5100
     13 O13       -10.6296   -1.9739   53.8338 O.2     1  ZINC000508782983   -0.5100
     14 C14       -10.2929   -2.2432   56.1433 C.2     1  ZINC000508782983    0.5100
     15 O15        -9.6971   -3.2759   56.3693 O.2     1  ZINC000508782983   -0.5200
     16 N16       -11.1261   -1.7293   57.0697 N.am    1  ZINC000508782983   -0.5800
     17 C17       -11.8625   -0.4822   56.8137 C.3     1  ZINC000508782983    0.0800
     18 C18       -13.3459   -0.7225   57.1136 C.3     1  ZINC000508782983    0.0400
     19 N19       -13.4866   -1.2589   58.4740 N.3     1  ZINC000508782983   -0.5400
     20 C20       -14.9005   -1.3419   58.8636 C.3     1  ZINC000508782983    0.1400
     21 C21       -15.1569   -0.4153   60.0241 C.2     1  ZINC000508782983    0.2100
     22 N22       -15.6552    0.7880   59.9412 N.2     1  ZINC000508782983   -0.4900
     23 C23       -15.7428    1.3162   61.1709 C.2     1  ZINC000508782983   -0.0300
     24 C24       -15.2814    0.4057   62.0493 C.2     1  ZINC000508782983   -0.0500
     25 N25       -14.9145   -0.6950   61.3229 N.pl3   1  ZINC000508782983   -0.5600
     26 C26       -12.8276   -2.5656   58.6022 C.3     1  ZINC000508782983    0.0400
     27 C27       -11.3276   -2.4040   58.3610 C.3     1  ZINC000508782983    0.1100
     28 H28        -8.1811    5.2875   53.0532 H       1  ZINC000508782983    0.0700
     29 H29        -8.4011    4.3436   54.5462 H       1  ZINC000508782983    0.0600
     30 H30        -6.7872    4.9536   54.1085 H       1  ZINC000508782983    0.0600
     31 H31        -8.3831    2.8670   52.5542 H       1  ZINC000508782983    0.0800
     32 H32        -5.5898    4.0320   52.1656 H       1  ZINC000508782983    0.0600
     33 H33        -6.2372    2.6318   51.2776 H       1  ZINC000508782983    0.0600
     34 H34        -6.9834    4.2352   51.0771 H       1  ZINC000508782983    0.0600
     35 H35        -5.8012    2.5677   54.1471 H       1  ZINC000508782983    0.1000
     36 H36        -7.4087    2.1392   54.7801 H       1  ZINC000508782983    0.0900
     37 H37        -4.6244    0.8260   52.5909 H       1  ZINC000508782983    0.1800
     38 H38        -5.3418   -1.4963   51.5990 H       1  ZINC000508782983    0.1700
     39 H39        -9.3576    1.3237   53.6213 H       1  ZINC000508782983    0.0900
     40 H40        -9.8456   -0.1537   52.7567 H       1  ZINC000508782983    0.1100
     41 H41        -8.9261   -0.0810   55.5779 H       1  ZINC000508782983    0.4200
     42 H42       -11.4813    0.3076   57.4611 H       1  ZINC000508782983    0.0800
     43 H43       -11.7422   -0.1935   55.7696 H       1  ZINC000508782983    0.1400
     44 H44       -13.8899    0.2188   57.0358 H       1  ZINC000508782983    0.0900
     45 H45       -13.7507   -1.4373   56.3971 H       1  ZINC000508782983    0.0400
     46 H46       -15.5273   -1.0506   58.0208 H       1  ZINC000508782983    0.0900
     47 H47       -15.1374   -2.3648   59.1561 H       1  ZINC000508782983    0.0700
     48 H48       -16.1178    2.2994   61.4140 H       1  ZINC000508782983    0.1700
     49 H49       -15.2170    0.5203   63.1213 H       1  ZINC000508782983    0.1800
     50 H50       -14.5443   -1.5195   61.6747 H       1  ZINC000508782983    0.4200
     51 H51       -12.9957   -2.9608   59.6040 H       1  ZINC000508782983    0.1100
     52 H52       -13.2396   -3.2546   57.8650 H       1  ZINC000508782983    0.0400
     53 H53       -10.8521   -3.3846   58.3417 H       1  ZINC000508782983    0.1000
     54 H54       -10.8920   -1.7984   59.1557 H       1  ZINC000508782983    0.0800
@<TRIPOS>BOND
     1     1     2    1
     2     1    28    1
     3     1    29    1
     4     1    30    1
     5     2     3    1
     6     2     4    1
     7     2    31    1
     8     3    32    1
     9     3    33    1
    10     3    34    1
    11     4     5    1
    12     4    35    1
    13     4    36    1
    14     5     9    1
    15     5     6    1
    16     6     7    2
    17     6    37    1
    18     7     8    1
    19     7    38    1
    20     8     9    2
    21     9    10    1
    22    10    11    1
    23    10    39    1
    24    10    40    1
    25    11    12   am
    26    11    41    1
    27    12    13    2
    28    12    14    1
    29    14    15    2
    30    14    16   am
    31    16    27    1
    32    16    17    1
    33    17    18    1
    34    17    42    1
    35    17    43    1
    36    18    19    1
    37    18    44    1
    38    18    45    1
    39    19    20    1
    40    19    26    1
    41    20    21    1
    42    20    46    1
    43    20    47    1
    44    21    25    1
    45    21    22    2
    46    22    23    1
    47    23    24    2
    48    23    48    1
    49    24    25    1
    50    24    49    1
    51    25    50    1
    52    26    27    1
    53    26    51    1
    54    26    52    1
    55    27    53    1
    56    27    54    1
@<TRIPOS>SUBSTRUCTURE
     1 ZINC000508782983        1 TEMP              0 ****  ****    0 ROOT


##########                                Name:    ZINC000375302598
##########                DOCK_Rotatable_Bonds:                   8
##########                         Heavy_Atoms:                  27
##########                    Molecular_Weight:             368.479
##########                DOCK_Rotatable_Bonds:                   8
##########                       Formal_Charge:               -0.02
##########                     HBond_Acceptors:                   6
##########                        HBond_Donors:                   1
##########                         Heavy_Atoms:                  27
##########                          Grid_Score:          -32.512066
##########                     Grid_vdw_energy:          -33.618225
##########                      Grid_es_energy:            1.106158
##########           Internal_energy_repulsive:           11.303765

@<TRIPOS>MOLECULE
ZINC000375302598
 55 58 1 0 0
SMALL
USER_CHARGES


@<TRIPOS>ATOM
      1 C1         -1.4918    4.0159   55.6329 C.3     1  ZINC000375302598   -0.1500
      2 C2         -0.7874    4.2956   54.3037 C.3     1  ZINC000375302598   -0.0300
      3 C3         -1.4445    3.4954   53.2088 C.2     1  ZINC000375302598    0.1800
      4 N4         -2.7093    3.1559   53.1410 N.2     1  ZINC000375302598   -0.4700
      5 C5         -2.8353    2.4545   52.0004 C.2     1  ZINC000375302598    0.1800
      6 C6         -4.1037    1.8403   51.4665 C.3     1  ZINC000375302598    0.1500
      7 N7         -5.2175    2.1516   52.3724 N.3     1  ZINC000375302598   -0.5300
      8 C8         -5.8068    3.4580   52.0522 C.3     1  ZINC000375302598    0.0500
      9 C9         -6.8628    3.8135   53.1012 C.3     1  ZINC000375302598   -0.1100
     10 C10        -7.9473    2.7326   53.1133 C.3     1  ZINC000375302598   -0.1300
     11 C11        -7.3004    1.3749   53.4012 C.3     1  ZINC000375302598    0.1500
     12 H12        -6.8393    1.3936   54.3886 H       1  ZINC000375302598    0.1000
     13 N13        -8.3233    0.3270   53.3587 N.am    1  ZINC000375302598   -0.7300
     14 C14        -8.9444   -0.0548   54.4923 C.2     1  ZINC000375302598    0.5200
     15 O15        -8.6553    0.4681   55.5477 O.2     1  ZINC000375302598   -0.5300
     16 C16        -9.9977   -1.1315   54.4484 C.3     1  ZINC000375302598   -0.1100
     17 C17       -11.0397   -0.8704   55.5378 C.3     1  ZINC000375302598   -0.1200
     18 H18       -11.7899   -0.1163   55.2998 H       1  ZINC000375302598    0.1200
     19 C19       -10.5811   -0.9757   56.9937 C.3     1  ZINC000375302598   -0.1700
     20 C20       -11.4802   -2.0596   56.3937 C.3     1  ZINC000375302598   -0.1100
     21 H21       -11.0275   -3.0281   56.1809 H       1  ZINC000375302598    0.1100
     22 C22       -12.9178   -2.0991   56.8439 C.ar    1  ZINC000375302598   -0.0500
     23 C23       -13.9039   -1.5316   56.0586 C.ar    1  ZINC000375302598   -0.1200
     24 C24       -15.2226   -1.5678   56.4715 C.ar    1  ZINC000375302598   -0.1200
     25 C25       -15.5554   -2.1719   57.6695 C.ar    1  ZINC000375302598   -0.1300
     26 C26       -14.5696   -2.7401   58.4544 C.ar    1  ZINC000375302598   -0.1200
     27 C27       -13.2513   -2.7076   58.0394 C.ar    1  ZINC000375302598   -0.1100
     28 C28        -6.2317    1.0901   52.3435 C.3     1  ZINC000375302598    0.0500
     29 N29        -1.6625    2.4040   51.4431 N.2     1  ZINC000375302598   -0.3800
     30 O30        -0.8506    3.0008   52.1184 O.3     1  ZINC000375302598    0.0800
     31 H31        -1.4194    2.9535   55.8659 H       1  ZINC000375302598    0.0600
     32 H32        -1.0165    4.5948   56.4247 H       1  ZINC000375302598    0.0800
     33 H33        -2.5412    4.3001   55.5548 H       1  ZINC000375302598    0.0600
     34 H34        -0.8599    5.3580   54.0706 H       1  ZINC000375302598    0.1100
     35 H35         0.2620    4.0114   54.3818 H       1  ZINC000375302598    0.1000
     36 H36        -4.3155    2.2460   50.4773 H       1  ZINC000375302598    0.0700
     37 H37        -3.9828    0.7592   51.3975 H       1  ZINC000375302598    0.1100
     38 H38        -5.0256    4.2183   52.0509 H       1  ZINC000375302598    0.0800
     39 H39        -6.2728    3.4147   51.0679 H       1  ZINC000375302598    0.0400
     40 H40        -6.3947    3.8705   54.0839 H       1  ZINC000375302598    0.0700
     41 H41        -7.3111    4.7761   52.8546 H       1  ZINC000375302598    0.0700
     42 H42        -8.6789    2.9594   53.8889 H       1  ZINC000375302598    0.0700
     43 H43        -8.4419    2.7020   52.1425 H       1  ZINC000375302598    0.0600
     44 H44        -8.5536   -0.0920   52.5148 H       1  ZINC000375302598    0.4000
     45 H45       -10.4831   -1.1253   53.4724 H       1  ZINC000375302598    0.1000
     46 H46        -9.5321   -2.1026   54.6163 H       1  ZINC000375302598    0.1000
     47 H47        -9.5372   -1.2310   57.1753 H       1  ZINC000375302598    0.1000
     48 H48       -11.0300   -0.2912   57.7136 H       1  ZINC000375302598    0.1000
     49 H49       -13.6438   -1.0597   55.1225 H       1  ZINC000375302598    0.1200
     50 H50       -15.9928   -1.1239   55.8582 H       1  ZINC000375302598    0.1200
     51 H51       -16.5857   -2.1995   57.9924 H       1  ZINC000375302598    0.1200
     52 H52       -14.8295   -3.2117   59.3905 H       1  ZINC000375302598    0.1200
     53 H53       -12.4811   -3.1516   58.6527 H       1  ZINC000375302598    0.1200
     54 H54        -6.6958    1.0579   51.3578 H       1  ZINC000375302598    0.0400
     55 H55        -5.7592    0.1306   52.5538 H       1  ZINC000375302598    0.0900
@<TRIPOS>BOND
     1     1     2    1
     2     1    31    1
     3     1    32    1
     4     1    33    1
     5     2     3    1
     6     2    34    1
     7     2    35    1
     8     3    30    1
     9     3     4    2
    10     4     5    1
    11     5     6    1
    12     5    29    2
    13     6     7    1
    14     6    36    1
    15     6    37    1
    16     7    28    1
    17     7     8    1
    18     8     9    1
    19     8    38    1
    20     8    39    1
    21     9    10    1
    22     9    40    1
    23     9    41    1
    24    10    11    1
    25    10    42    1
    26    10    43    1
    27    11    12    1
    28    11    13    1
    29    11    28    1
    30    13    14   am
    31    13    44    1
    32    14    15    2
    33    14    16    1
    34    16    17    1
    35    16    45    1
    36    16    46    1
    37    17    18    1
    38    17    20    1
    39    17    19    1
    40    19    20    1
    41    19    47    1
    42    19    48    1
    43    20    21    1
    44    20    22    1
    45    22    27   ar
    46    22    23   ar
    47    23    24   ar
    48    23    49    1
    49    24    25   ar
    50    24    50    1
    51    25    26   ar
    52    25    51    1
    53    26    27   ar
    54    26    52    1
    55    27    53    1
    56    28    54    1
    57    28    55    1
    58    29    30    1
@<TRIPOS>SUBSTRUCTURE
     1 ZINC000375302598        1 TEMP              0 ****  ****    0 ROOT


##########                                Name:    ZINC000523153175
##########                DOCK_Rotatable_Bonds:                   9
##########                         Heavy_Atoms:                  30
##########                    Molecular_Weight:             413.603
##########                DOCK_Rotatable_Bonds:                   9
##########                       Formal_Charge:           0.0499987
##########                     HBond_Acceptors:                   5
##########                        HBond_Donors:                   1
##########                         Heavy_Atoms:                  30
##########                          Grid_Score:          -32.497364
##########                     Grid_vdw_energy:          -31.492195
##########                      Grid_es_energy:           -1.005169
##########           Internal_energy_repulsive:           32.991234

@<TRIPOS>MOLECULE
ZINC000523153175
 69 71 1 0 0
SMALL
USER_CHARGES


@<TRIPOS>ATOM
      1 C1         -6.5654    2.6695   65.3891 C.3     1  ZINC000523153175   -0.1500
      2 C2         -6.7330    1.2335   64.8883 C.3     1  ZINC000523153175   -0.0600
      3 C3         -7.8337    0.5383   65.6921 C.3     1  ZINC000523153175   -0.1400
      4 C4         -7.1111    1.2512   63.4297 C.ar    1  ZINC000523153175   -0.0800
      5 C5         -7.8319    2.3127   62.9153 C.ar    1  ZINC000523153175   -0.1100
      6 C6         -8.1787    2.3290   61.5773 C.ar    1  ZINC000523153175   -0.1100
      7 C7         -7.8044    1.2839   60.7534 C.ar    1  ZINC000523153175   -0.0800
      8 C8         -8.1829    1.3014   59.2948 C.3     1  ZINC000523153175   -0.0300
      9 H9         -8.7235    2.2210   59.0708 H       1  ZINC000523153175    0.0800
     10 C10        -6.9169    1.2325   58.4385 C.3     1  ZINC000523153175   -0.1500
     11 C11        -9.0744    0.0973   58.9849 C.3     1  ZINC000523153175   -0.1300
     12 C12       -10.4559    0.3400   59.5359 C.2     1  ZINC000523153175    0.5200
     13 O13       -10.7387    1.4200   60.0097 O.2     1  ZINC000523153175   -0.5300
     14 N14       -11.3772   -0.6431   59.5023 N.am    1  ZINC000523153175   -0.6200
     15 C15       -12.7337   -0.4247   60.0275 C.3     1  ZINC000523153175    0.1100
     16 C16       -13.7444   -0.8551   58.9592 C.3     1  ZINC000523153175    0.0400
     17 N17       -13.4543   -2.2334   58.5420 N.3     1  ZINC000523153175   -0.5100
     18 C18       -14.5011   -2.7438   57.6467 C.3     1  ZINC000523153175    0.0600
     19 H19       -14.0917   -3.5412   57.0265 H       1  ZINC000523153175    0.1100
     20 C20       -15.6624   -3.2904   58.4793 C.3     1  ZINC000523153175   -0.1800
     21 C21       -14.9970   -1.6264   56.7654 C.2     1  ZINC000523153175    0.5200
     22 O22       -16.0270   -1.0484   57.0408 O.2     1  ZINC000523153175   -0.5200
     23 N23       -14.2957   -1.2694   55.6711 N.am    1  ZINC000523153175   -0.7200
     24 C24       -14.7769   -0.1820   54.8154 C.3     1  ZINC000523153175    0.1400
     25 C25       -13.6119    0.3886   53.9807 C.3     1  ZINC000523153175   -0.1300
     26 C26       -13.7127   -0.3579   52.6273 C.3     1  ZINC000523153175   -0.1300
     27 C27       -15.2424   -0.4564   52.4046 C.3     1  ZINC000523153175   -0.1300
     28 C28       -15.8137   -0.7193   53.8132 C.3     1  ZINC000523153175   -0.1300
     29 C29       -12.1300   -2.3325   57.9140 C.3     1  ZINC000523153175    0.0400
     30 C30       -11.0550   -1.9607   58.9339 C.3     1  ZINC000523153175    0.1200
     31 C31        -7.0824    0.2231   61.2675 C.ar    1  ZINC000523153175   -0.1100
     32 C32        -6.7323    0.2087   62.6047 C.ar    1  ZINC000523153175   -0.1200
     33 H33        -6.2919    2.6567   66.4442 H       1  ZINC000523153175    0.0600
     34 H34        -5.7813    3.1647   64.8165 H       1  ZINC000523153175    0.0600
     35 H35        -7.5035    3.2100   65.2635 H       1  ZINC000523153175    0.0600
     36 H36        -5.7949    0.6930   65.0140 H       1  ZINC000523153175    0.0800
     37 H37        -8.7719    1.0788   65.5664 H       1  ZINC000523153175    0.0600
     38 H38        -7.9533   -0.4847   65.3352 H       1  ZINC000523153175    0.0600
     39 H39        -7.5603    0.5255   66.7472 H       1  ZINC000523153175    0.0600
     40 H40        -8.1244    3.1292   63.5589 H       1  ZINC000523153175    0.1200
     41 H41        -8.7425    3.1580   61.1755 H       1  ZINC000523153175    0.1200
     42 H42        -7.1906    1.2451   57.3835 H       1  ZINC000523153175    0.0800
     43 H43        -6.2817    2.0903   58.6594 H       1  ZINC000523153175    0.0600
     44 H44        -6.3763    0.3129   58.6627 H       1  ZINC000523153175    0.0500
     45 H45        -9.1333   -0.0431   57.9055 H       1  ZINC000523153175    0.0900
     46 H46        -8.6516   -0.7959   59.4449 H       1  ZINC000523153175    0.0900
     47 H47       -12.8775   -1.0205   60.9289 H       1  ZINC000523153175    0.0800
     48 H48       -12.8715    0.6318   60.2576 H       1  ZINC000523153175    0.0900
     49 H49       -14.7525   -0.8041   59.3707 H       1  ZINC000523153175    0.0900
     50 H50       -13.6687   -0.1910   58.0982 H       1  ZINC000523153175    0.0400
     51 H51       -16.0718   -2.4929   59.0995 H       1  ZINC000523153175    0.0700
     52 H52       -16.4392   -3.6690   57.8150 H       1  ZINC000523153175    0.0700
     53 H53       -15.3037   -4.0986   59.1168 H       1  ZINC000523153175    0.0700
     54 H54       -13.4726   -1.7325   55.4502 H       1  ZINC000523153175    0.4000
     55 H55       -15.2204    0.6047   55.4256 H       1  ZINC000523153175    0.0900
     56 H56       -13.7368    1.4616   53.8348 H       1  ZINC000523153175    0.0700
     57 H57       -12.6575    0.1769   54.4630 H       1  ZINC000523153175    0.0700
     58 H58       -13.2429    0.2200   51.8315 H       1  ZINC000523153175    0.0700
     59 H59       -13.2681   -1.3505   52.6996 H       1  ZINC000523153175    0.0700
     60 H60       -15.6306    0.4800   52.0041 H       1  ZINC000523153175    0.0700
     61 H61       -15.4780   -1.2849   51.7367 H       1  ZINC000523153175    0.0700
     62 H62       -15.9588   -1.7891   53.9636 H       1  ZINC000523153175    0.0700
     63 H63       -16.7600   -0.1927   53.9366 H       1  ZINC000523153175    0.0800
     64 H64       -11.9673   -3.3530   57.5675 H       1  ZINC000523153175    0.1000
     65 H65       -12.0768   -1.6477   57.0676 H       1  ZINC000523153175    0.0400
     66 H66       -10.0825   -1.9216   58.4431 H       1  ZINC000523153175    0.1000
     67 H67       -11.0355   -2.7025   59.7323 H       1  ZINC000523153175    0.0800
     68 H68        -6.7897   -0.5932   60.6238 H       1  ZINC000523153175    0.1200
     69 H69        -6.1682   -0.6201   63.0063 H       1  ZINC000523153175    0.1200
@<TRIPOS>BOND
     1     1     2    1
     2     1    33    1
     3     1    34    1
     4     1    35    1
     5     2     3    1
     6     2     4    1
     7     2    36    1
     8     3    37    1
     9     3    38    1
    10     3    39    1
    11     4    32   ar
    12     4     5   ar
    13     5     6   ar
    14     5    40    1
    15     6     7   ar
    16     6    41    1
    17     7     8    1
    18     7    31   ar
    19     8     9    1
    20     8    10    1
    21     8    11    1
    22    10    42    1
    23    10    43    1
    24    10    44    1
    25    11    12    1
    26    11    45    1
    27    11    46    1
    28    12    13    2
    29    12    14   am
    30    14    30    1
    31    14    15    1
    32    15    16    1
    33    15    47    1
    34    15    48    1
    35    16    17    1
    36    16    49    1
    37    16    50    1
    38    17    18    1
    39    17    29    1
    40    18    19    1
    41    18    20    1
    42    18    21    1
    43    20    51    1
    44    20    52    1
    45    20    53    1
    46    21    22    2
    47    21    23   am
    48    23    24    1
    49    23    54    1
    50    24    28    1
    51    24    25    1
    52    24    55    1
    53    25    26    1
    54    25    56    1
    55    25    57    1
    56    26    27    1
    57    26    58    1
    58    26    59    1
    59    27    28    1
    60    27    60    1
    61    27    61    1
    62    28    62    1
    63    28    63    1
    64    29    30    1
    65    29    64    1
    66    29    65    1
    67    30    66    1
    68    30    67    1
    69    31    32   ar
    70    31    68    1
    71    32    69    1
@<TRIPOS>SUBSTRUCTURE
     1 ZINC000523153175        1 TEMP              0 ****  ****    0 ROOT


##########                                Name:    ZINC000512699033
##########                DOCK_Rotatable_Bonds:                   9
##########                         Heavy_Atoms:                  30
##########                    Molecular_Weight:              405.54
##########                DOCK_Rotatable_Bonds:                   9
##########                       Formal_Charge:           0.0199988
##########                     HBond_Acceptors:                   5
##########                        HBond_Donors:                   2
##########                         Heavy_Atoms:                  30
##########                          Grid_Score:          -32.480495
##########                     Grid_vdw_energy:          -32.987125
##########                      Grid_es_energy:            0.506630
##########           Internal_energy_repulsive:           14.501299

@<TRIPOS>MOLECULE
ZINC000512699033
 61 64 1 0 0
SMALL
USER_CHARGES


@<TRIPOS>ATOM
      1 O1         -9.9311    0.0632   53.9301 O.2     1  ZINC000512699033   -0.5100
      2 C2         -9.5249    0.6693   54.8989 C.2     1  ZINC000512699033    0.5200
      3 C3         -9.5154    0.0069   56.2525 C.3     1  ZINC000512699033   -0.1500
      4 C4         -9.6813   -1.5045   56.0819 C.3     1  ZINC000512699033    0.1300
      5 N5        -11.1043   -1.8487   56.1351 N.am    1  ZINC000512699033   -0.7300
      6 C6        -11.6730   -2.1838   57.3101 C.2     1  ZINC000512699033    0.5200
      7 O7        -11.0066   -2.2019   58.3231 O.2     1  ZINC000512699033   -0.5300
      8 C8        -13.1373   -2.5362   57.3651 C.3     1  ZINC000512699033   -0.1100
      9 C9        -13.6827   -2.2328   58.7619 C.3     1  ZINC000512699033   -0.1100
     10 C10       -15.1693   -2.5906   58.8177 C.3     1  ZINC000512699033   -0.1200
     11 C11       -15.9323   -1.7631   57.7815 C.3     1  ZINC000512699033   -0.1200
     12 C12       -15.3868   -2.0665   56.3845 C.3     1  ZINC000512699033   -0.1200
     13 C13       -13.9003   -1.7087   56.3287 C.3     1  ZINC000512699033   -0.1000
     14 N14        -9.0768    1.9332   54.7641 N.am    1  ZINC000512699033   -0.6600
     15 C15        -9.0856    2.5482   53.5072 C.ar    1  ZINC000512699033    0.1700
     16 C16       -10.2869    2.9454   52.9353 C.ar    1  ZINC000512699033   -0.1400
     17 C17       -10.2921    3.5528   51.6947 C.ar    1  ZINC000512699033   -0.1000
     18 C18        -9.1028    3.7649   51.0223 C.ar    1  ZINC000512699033   -0.1400
     19 C19        -7.9046    3.3704   51.5891 C.ar    1  ZINC000512699033   -0.0900
     20 C20        -7.8921    2.7679   52.8316 C.ar    1  ZINC000512699033   -0.1200
     21 C21        -6.5860    2.3385   53.4486 C.3     1  ZINC000512699033    0.0900
     22 N22        -5.5909    3.4062   53.2813 N.3     1  ZINC000512699033   -0.4700
     23 C23        -5.1254    3.9071   54.5928 C.3     1  ZINC000512699033    0.0500
     24 C24        -3.6695    4.3331   54.2946 C.3     1  ZINC000512699033   -0.0900
     25 C25        -3.2989    3.4607   53.1119 C.ar    1  ZINC000512699033   -0.1400
     26 C26        -2.0776    3.1443   52.5557 C.ar    1  ZINC000512699033   -0.0800
     27 C27        -2.0120    2.3034   51.4591 C.ar    1  ZINC000512699033   -0.1400
     28 C28        -3.1736    1.7802   50.9217 C.ar    1  ZINC000512699033   -0.0900
     29 C29        -4.3982    2.0954   51.4731 C.ar    1  ZINC000512699033   -0.1400
     30 C30        -4.4729    2.9442   52.5760 C.ar    1  ZINC000512699033    0.0900
     31 H31        -8.5692    0.2145   56.7520 H       1  ZINC000512699033    0.1100
     32 H32       -10.3369    0.3969   56.8536 H       1  ZINC000512699033    0.1000
     33 H33        -9.2695   -1.8089   55.1197 H       1  ZINC000512699033    0.0800
     34 H34        -9.1524   -2.0207   56.8831 H       1  ZINC000512699033    0.0800
     35 H35       -11.6371   -1.8353   55.3247 H       1  ZINC000512699033    0.4000
     36 H36       -13.2640   -3.5968   57.1479 H       1  ZINC000512699033    0.1000
     37 H37       -13.1392   -2.8224   59.5002 H       1  ZINC000512699033    0.0700
     38 H38       -13.5560   -1.1723   58.9791 H       1  ZINC000512699033    0.0700
     39 H39       -15.2961   -3.6513   58.6006 H       1  ZINC000512699033    0.0600
     40 H40       -15.5580   -2.3745   59.8128 H       1  ZINC000512699033    0.0700
     41 H41       -16.9913   -2.0180   57.8212 H       1  ZINC000512699033    0.0600
     42 H42       -15.8054   -0.7025   57.9986 H       1  ZINC000512699033    0.0600
     43 H43       -15.5136   -3.1270   56.1674 H       1  ZINC000512699033    0.0600
     44 H44       -15.9304   -1.4768   55.6463 H       1  ZINC000512699033    0.0700
     45 H45       -13.7734   -0.6481   56.5460 H       1  ZINC000512699033    0.0700
     46 H46       -13.5116   -1.9248   55.3336 H       1  ZINC000512699033    0.0700
     47 H47        -8.7481    2.4164   55.5382 H       1  ZINC000512699033    0.4200
     48 H48       -11.2163    2.7794   53.4599 H       1  ZINC000512699033    0.1500
     49 H49       -11.2262    3.8618   51.2495 H       1  ZINC000512699033    0.1300
     50 H50        -9.1096    4.2393   50.0520 H       1  ZINC000512699033    0.1200
     51 H51        -6.9772    3.5375   51.0614 H       1  ZINC000512699033    0.1200
     52 H52        -6.7331    2.1420   54.5106 H       1  ZINC000512699033    0.0600
     53 H53        -6.2325    1.4322   52.9569 H       1  ZINC000512699033    0.0900
     54 H54        -5.7206    4.7621   54.9136 H       1  ZINC000512699033    0.1000
     55 H55        -5.1508    3.1144   55.3406 H       1  ZINC000512699033    0.0600
     56 H56        -3.6237    5.3884   54.0252 H       1  ZINC000512699033    0.0900
     57 H57        -3.0235    4.1228   55.1470 H       1  ZINC000512699033    0.0800
     58 H58        -1.1711    3.5537   52.9764 H       1  ZINC000512699033    0.1200
     59 H59        -1.0553    2.0565   51.0232 H       1  ZINC000512699033    0.1300
     60 H60        -3.1220    1.1226   50.0667 H       1  ZINC000512699033    0.1300
     61 H61        -5.3019    1.6837   51.0485 H       1  ZINC000512699033    0.1200
@<TRIPOS>BOND
     1     1     2    2
     2     2     3    1
     3     2    14   am
     4     3     4    1
     5     3    31    1
     6     3    32    1
     7     4     5    1
     8     4    33    1
     9     4    34    1
    10     5     6   am
    11     5    35    1
    12     6     7    2
    13     6     8    1
    14     8    13    1
    15     8     9    1
    16     8    36    1
    17     9    10    1
    18     9    37    1
    19     9    38    1
    20    10    11    1
    21    10    39    1
    22    10    40    1
    23    11    12    1
    24    11    41    1
    25    11    42    1
    26    12    13    1
    27    12    43    1
    28    12    44    1
    29    13    45    1
    30    13    46    1
    31    14    15    1
    32    14    47    1
    33    15    20   ar
    34    15    16   ar
    35    16    17   ar
    36    16    48    1
    37    17    18   ar
    38    17    49    1
    39    18    19   ar
    40    18    50    1
    41    19    20   ar
    42    19    51    1
    43    20    21    1
    44    21    22    1
    45    21    52    1
    46    21    53    1
    47    22    30    1
    48    22    23    1
    49    23    24    1
    50    23    54    1
    51    23    55    1
    52    24    25    1
    53    24    56    1
    54    24    57    1
    55    25    30   ar
    56    25    26   ar
    57    26    27   ar
    58    26    58    1
    59    27    28   ar
    60    27    59    1
    61    28    29   ar
    62    28    60    1
    63    29    30   ar
    64    29    61    1
@<TRIPOS>SUBSTRUCTURE
     1 ZINC000512699033        1 TEMP              0 ****  ****    0 ROOT


##########                                Name:    ZINC000045927156
##########                DOCK_Rotatable_Bonds:                   7
##########                         Heavy_Atoms:                  30
##########                    Molecular_Weight:             418.522
##########                DOCK_Rotatable_Bonds:                   7
##########                       Formal_Charge:           0.0200001
##########                     HBond_Acceptors:                   8
##########                        HBond_Donors:                   1
##########                         Heavy_Atoms:                  30
##########                          Grid_Score:          -32.465607
##########                     Grid_vdw_energy:          -31.059628
##########                      Grid_es_energy:           -1.405981
##########           Internal_energy_repulsive:           15.154997

@<TRIPOS>MOLECULE
ZINC000045927156
 52 56 1 0 0
SMALL
USER_CHARGES


@<TRIPOS>ATOM
      1 O1        -11.3586   -1.1116   52.2626 O.2     1  ZINC000045927156   -0.5800
      2 C2        -11.9682   -0.9352   53.2998 C.2     1  ZINC000045927156    0.7300
      3 N3        -13.2261   -0.4524   53.2684 N.am    1  ZINC000045927156   -0.7400
      4 C4        -13.8569   -0.1346   51.9849 C.3     1  ZINC000045927156    0.1700
      5 C5        -13.4637    1.2577   51.5631 C.ar    1  ZINC000045927156   -0.0700
      6 C6        -13.5332    2.2996   52.4684 C.ar    1  ZINC000045927156   -0.1000
      7 C7        -13.1725    3.5770   52.0815 C.ar    1  ZINC000045927156   -0.1100
      8 C8        -12.7418    3.8119   50.7894 C.ar    1  ZINC000045927156   -0.1100
      9 C9        -12.6713    2.7694   49.8839 C.ar    1  ZINC000045927156   -0.1000
     10 C10       -13.0279    1.4918   50.2719 C.ar    1  ZINC000045927156   -0.1000
     11 C11       -12.9510    0.3554   49.2850 C.3     1  ZINC000045927156    0.1700
     12 N12       -14.3044   -0.0286   48.8763 N.pl3   1  ZINC000045927156   -0.3800
     13 C13       -15.3800    0.7738   48.7959 C.2     1  ZINC000045927156    0.2500
     14 N14       -16.3949    0.0531   48.3930 N.2     1  ZINC000045927156   -0.5400
     15 C15       -16.0080   -1.2082   48.2066 C.2     1  ZINC000045927156    0.2000
     16 N16       -14.7345   -1.3069   48.4845 N.2     1  ZINC000045927156   -0.3100
     17 N17       -11.3879   -1.2276   54.4805 N.am    1  ZINC000045927156   -0.6200
     18 C18       -12.0109   -1.0678   55.8071 C.3     1  ZINC000045927156    0.1000
     19 C19       -11.2595   -2.0675   56.7212 C.3     1  ZINC000045927156   -0.1300
     20 C20        -9.8117   -1.9629   56.1732 C.3     1  ZINC000045927156   -0.1200
     21 C21       -10.0310   -1.7650   54.6587 C.3     1  ZINC000045927156    0.2300
     22 H22        -9.9344   -2.7200   54.1422 H       1  ZINC000045927156    0.1000
     23 C23        -9.0210   -0.7857   54.1182 C.2     1  ZINC000045927156    0.0900
     24 N24        -8.2845   -1.0028   53.0950 N.2     1  ZINC000045927156   -0.4500
     25 C25        -7.4238   -0.0361   52.7230 C.ar    1  ZINC000045927156    0.0800
     26 C26        -6.5086   -0.0092   51.6517 C.ar    1  ZINC000045927156   -0.0700
     27 C27        -5.7180    1.0809   51.4471 C.ar    1  ZINC000045927156   -0.1100
     28 C28        -5.7977    2.1834   52.2859 C.ar    1  ZINC000045927156   -0.1000
     29 C29        -6.6828    2.1851   53.3407 C.ar    1  ZINC000045927156   -0.0700
     30 C30        -7.4992    1.0791   53.5653 C.ar    1  ZINC000045927156   -0.1800
     31 S31        -8.7220    0.7541   54.7900 S.3     1  ZINC000045927156    0.1200
     32 H32       -13.7138   -0.3155   54.0956 H       1  ZINC000045927156    0.3900
     33 H33       -13.5270   -0.8494   51.2311 H       1  ZINC000045927156    0.1000
     34 H34       -14.9405   -0.1903   52.0888 H       1  ZINC000045927156    0.0700
     35 H35       -13.8698    2.1161   53.4782 H       1  ZINC000045927156    0.1300
     36 H36       -13.2275    4.3913   52.7887 H       1  ZINC000045927156    0.1300
     37 H37       -12.4607    4.8098   50.4869 H       1  ZINC000045927156    0.1300
     38 H38       -12.3352    2.9530   48.8741 H       1  ZINC000045927156    0.1300
     39 H39       -12.3833    0.6719   48.4101 H       1  ZINC000045927156    0.1100
     40 H40       -12.4563   -0.4971   49.7504 H       1  ZINC000045927156    0.1000
     41 H41       -15.4025    1.8290   49.0247 H       1  ZINC000045927156    0.2200
     42 H42       -16.6426   -2.0168   47.8754 H       1  ZINC000045927156    0.2200
     43 H43       -11.8768   -0.0484   56.1688 H       1  ZINC000045927156    0.0700
     44 H44       -13.0707   -1.3186   55.7611 H       1  ZINC000045927156    0.0800
     45 H45       -11.3061   -1.7543   57.7641 H       1  ZINC000045927156    0.0900
     46 H46       -11.6509   -3.0776   56.6004 H       1  ZINC000045927156    0.0800
     47 H47        -9.2961   -1.1062   56.6072 H       1  ZINC000045927156    0.0900
     48 H48        -9.2599   -2.8834   56.3637 H       1  ZINC000045927156    0.0900
     49 H49        -6.4333   -0.8586   50.9889 H       1  ZINC000045927156    0.1300
     50 H50        -5.0206    1.0873   50.6225 H       1  ZINC000045927156    0.1400
     51 H51        -5.1645    3.0407   52.1116 H       1  ZINC000045927156    0.1400
     52 H52        -6.7437    3.0432   53.9936 H       1  ZINC000045927156    0.1300
@<TRIPOS>BOND
     1     1     2    2
     2     2     3   am
     3     2    17   am
     4     3     4    1
     5     3    32    1
     6     4     5    1
     7     4    33    1
     8     4    34    1
     9     5    10   ar
    10     5     6   ar
    11     6     7   ar
    12     6    35    1
    13     7     8   ar
    14     7    36    1
    15     8     9   ar
    16     8    37    1
    17     9    10   ar
    18     9    38    1
    19    10    11    1
    20    11    12    1
    21    11    39    1
    22    11    40    1
    23    12    16    1
    24    12    13    1
    25    13    14    2
    26    13    41    1
    27    14    15    1
    28    15    16    2
    29    15    42    1
    30    17    21    1
    31    17    18    1
    32    18    19    1
    33    18    43    1
    34    18    44    1
    35    19    20    1
    36    19    45    1
    37    19    46    1
    38    20    21    1
    39    20    47    1
    40    20    48    1
    41    21    22    1
    42    21    23    1
    43    23    31    1
    44    23    24    2
    45    24    25    1
    46    25    30   ar
    47    25    26   ar
    48    26    27   ar
    49    26    49    1
    50    27    28   ar
    51    27    50    1
    52    28    29   ar
    53    28    51    1
    54    29    30   ar
    55    29    52    1
    56    30    31    1
@<TRIPOS>SUBSTRUCTURE
     1 ZINC000045927156        1 TEMP              0 ****  ****    0 ROOT


##########                                Name:    ZINC000426567005
##########                DOCK_Rotatable_Bonds:                   9
##########                         Heavy_Atoms:                  31
##########                    Molecular_Weight:             417.467
##########                DOCK_Rotatable_Bonds:                   9
##########                       Formal_Charge:        -2.23517e-07
##########                     HBond_Acceptors:                   8
##########                        HBond_Donors:                   4
##########                         Heavy_Atoms:                  31
##########                          Grid_Score:          -32.460236
##########                     Grid_vdw_energy:          -30.354549
##########                      Grid_es_energy:           -2.105687
##########           Internal_energy_repulsive:           16.271757

@<TRIPOS>MOLECULE
ZINC000426567005
 54 57 1 0 0
SMALL
USER_CHARGES


@<TRIPOS>ATOM
      1 O1         -2.5481    1.9662   50.3233 O.2     1  ZINC000426567005   -0.4900
      2 C2         -3.1233    2.0853   51.3855 C.2     1  ZINC000426567005    0.5200
      3 N3         -2.4834    2.6257   52.4415 N.am    1  ZINC000426567005   -0.6000
      4 C4         -1.1541    3.0440   52.3149 C.2     1  ZINC000426567005    0.3000
      5 N5         -0.5666    3.9740   53.0313 N.2     1  ZINC000426567005   -0.3100
      6 N6          0.7588    4.0903   52.5934 N.pl3   1  ZINC000426567005   -0.4600
      7 C7          0.9486    3.2032   51.5938 C.2     1  ZINC000426567005    0.1100
      8 C8          2.2302    2.9873   50.8309 C.3     1  ZINC000426567005   -0.0300
      9 C9          2.9655    1.7275   51.3518 C.3     1  ZINC000426567005   -0.1200
     10 C10         3.8463    1.3221   50.1440 C.3     1  ZINC000426567005   -0.1300
     11 C11         2.9582    1.6074   48.9153 C.3     1  ZINC000426567005   -0.1300
     12 C12         1.9306    2.6662   49.3520 C.3     1  ZINC000426567005   -0.1200
     13 C13        -0.2130    2.5381   51.4030 C.2     1  ZINC000426567005   -0.2600
     14 C14        -4.5412    1.6391   51.5206 C.2     1  ZINC000426567005    0.5200
     15 O15        -5.2111    1.4373   50.5288 O.2     1  ZINC000426567005   -0.4900
     16 N16        -5.0778    1.4604   52.7440 N.am    1  ZINC000426567005   -0.6400
     17 C17        -6.4008    1.0441   52.8700 C.ar    1  ZINC000426567005    0.1700
     18 C18        -6.7368   -0.2847   52.6278 C.ar    1  ZINC000426567005   -0.1300
     19 C19        -8.0435   -0.6994   52.7516 C.ar    1  ZINC000426567005   -0.0300
     20 C20        -9.0334    0.2155   53.1214 C.ar    1  ZINC000426567005   -0.1500
     21 C21       -10.4352   -0.2258   53.2555 C.2     1  ZINC000426567005    0.5600
     22 O22       -10.6857   -1.3243   53.7128 O.2     1  ZINC000426567005   -0.5100
     23 N23       -11.4378    0.5887   52.8712 N.am    1  ZINC000426567005   -0.6700
     24 C24       -12.7663    0.1706   52.9982 C.ar    1  ZINC000426567005    0.1400
     25 C25       -13.4261    0.3085   54.2126 C.ar    1  ZINC000426567005   -0.1500
     26 C26       -14.7383   -0.1050   54.3347 C.ar    1  ZINC000426567005   -0.1000
     27 C27       -15.3949   -0.6558   53.2495 C.ar    1  ZINC000426567005   -0.1300
     28 C28       -14.7407   -0.7949   52.0391 C.ar    1  ZINC000426567005   -0.1000
     29 C29       -13.4305   -0.3781   51.9088 C.ar    1  ZINC000426567005   -0.1200
     30 C30        -8.6927    1.5490   53.3645 C.ar    1  ZINC000426567005   -0.0600
     31 C31        -7.3833    1.9563   53.2436 C.ar    1  ZINC000426567005   -0.1400
     32 H32        -2.9443    2.7247   53.2892 H       1  ZINC000426567005    0.4300
     33 H33         1.4240    4.7016   52.9467 H       1  ZINC000426567005    0.4400
     34 H34         2.8716    3.8652   50.9083 H       1  ZINC000426567005    0.1100
     35 H35         3.5834    1.9706   52.2163 H       1  ZINC000426567005    0.0800
     36 H36         2.2545    0.9376   51.5937 H       1  ZINC000426567005    0.0700
     37 H37         4.7507    1.9296   50.1103 H       1  ZINC000426567005    0.0700
     38 H38         4.0989    0.2629   50.1946 H       1  ZINC000426567005    0.0700
     39 H39         3.5661    1.9925   48.0966 H       1  ZINC000426567005    0.0700
     40 H40         2.4466    0.6964   48.6047 H       1  ZINC000426567005    0.0700
     41 H41         0.9204    2.2690   49.2535 H       1  ZINC000426567005    0.0600
     42 H42         2.0398    3.5651   48.7453 H       1  ZINC000426567005    0.0700
     43 H43        -0.3883    1.7608   50.6741 H       1  ZINC000426567005    0.1700
     44 H44        -4.5425    1.6218   53.5367 H       1  ZINC000426567005    0.4300
     45 H45        -5.9715   -0.9911   52.3421 H       1  ZINC000426567005    0.1500
     46 H46        -8.3037   -1.7303   52.5628 H       1  ZINC000426567005    0.1400
     47 H47       -11.2380    1.4650   52.5063 H       1  ZINC000426567005    0.4100
     48 H48       -12.9137    0.7383   55.0606 H       1  ZINC000426567005    0.1300
     49 H49       -15.2518    0.0016   55.2787 H       1  ZINC000426567005    0.1300
     50 H50       -16.4210   -0.9784   53.3475 H       1  ZINC000426567005    0.1200
     51 H51       -15.2562   -1.2261   51.1937 H       1  ZINC000426567005    0.1300
     52 H52       -12.9201   -0.4867   50.9632 H       1  ZINC000426567005    0.1300
     53 H53        -9.4553    2.2584   53.6500 H       1  ZINC000426567005    0.1300
     54 H54        -7.1194    2.9867   53.4313 H       1  ZINC000426567005    0.1400
@<TRIPOS>BOND
     1     1     2    2
     2     2     3   am
     3     2    14    1
     4     3     4    1
     5     3    32    1
     6     4    13    1
     7     4     5    2
     8     5     6    1
     9     6     7    1
    10     6    33    1
    11     7     8    1
    12     7    13    2
    13     8    12    1
    14     8     9    1
    15     8    34    1
    16     9    10    1
    17     9    35    1
    18     9    36    1
    19    10    11    1
    20    10    37    1
    21    10    38    1
    22    11    12    1
    23    11    39    1
    24    11    40    1
    25    12    41    1
    26    12    42    1
    27    13    43    1
    28    14    15    2
    29    14    16   am
    30    16    17    1
    31    16    44    1
    32    17    31   ar
    33    17    18   ar
    34    18    19   ar
    35    18    45    1
    36    19    20   ar
    37    19    46    1
    38    20    21    1
    39    20    30   ar
    40    21    22    2
    41    21    23   am
    42    23    24    1
    43    23    47    1
    44    24    29   ar
    45    24    25   ar
    46    25    26   ar
    47    25    48    1
    48    26    27   ar
    49    26    49    1
    50    27    28   ar
    51    27    50    1
    52    28    29   ar
    53    28    51    1
    54    29    52    1
    55    30    31   ar
    56    30    53    1
    57    31    54    1
@<TRIPOS>SUBSTRUCTURE
     1 ZINC000426567005        1 TEMP              0 ****  ****    0 ROOT


##########                                Name:    ZINC000298969660
##########                DOCK_Rotatable_Bonds:                  10
##########                         Heavy_Atoms:                  29
##########                    Molecular_Weight:             397.474
##########                DOCK_Rotatable_Bonds:                  10
##########                       Formal_Charge:          -0.0100008
##########                     HBond_Acceptors:                   7
##########                        HBond_Donors:                   2
##########                         Heavy_Atoms:                  29
##########                          Grid_Score:          -32.446434
##########                     Grid_vdw_energy:          -32.809788
##########                      Grid_es_energy:            0.363354
##########           Internal_energy_repulsive:          174.688705

@<TRIPOS>MOLECULE
ZINC000298969660
 56 58 1 0 0
SMALL
USER_CHARGES


@<TRIPOS>ATOM
      1 C1        -11.8796   -0.6076   53.3844 C.3     1  ZINC000298969660    0.0800
      2 N2        -10.5226   -0.6612   53.9339 N.am    1  ZINC000298969660   -0.6300
      3 C3        -10.0651   -1.8608   54.6395 C.3     1  ZINC000298969660    0.1400
      4 C4        -10.2103   -1.6515   56.1482 C.3     1  ZINC000298969660    0.0700
      5 H5         -9.8507   -2.5359   56.6740 H       1  ZINC000298969660    0.0500
      6 C6        -11.6836   -1.4170   56.4918 C.3     1  ZINC000298969660   -0.1500
      7 C7        -11.8131   -1.1488   57.9943 C.3     1  ZINC000298969660   -0.1200
      8 C8        -10.9319    0.0478   58.3659 C.3     1  ZINC000298969660   -0.1600
      9 C9         -9.4876   -0.2433   57.9499 C.3     1  ZINC000298969660    0.0600
     10 O10        -9.4424   -0.5144   56.5477 O.3     1  ZINC000298969660   -0.3600
     11 C11        -9.6952    0.3929   53.7902 C.2     1  ZINC000298969660    0.7100
     12 O12       -10.0756    1.3889   53.2058 O.2     1  ZINC000298969660   -0.5400
     13 N13        -8.4463    0.3430   54.2943 N.am    1  ZINC000298969660   -0.6900
     14 C14        -7.5873    1.4375   54.1451 C.ar    1  ZINC000298969660    0.2000
     15 C15        -7.5151    2.4053   55.1386 C.ar    1  ZINC000298969660   -0.1800
     16 C16        -6.6674    3.4863   54.9910 C.ar    1  ZINC000298969660   -0.0600
     17 C17        -5.8893    3.6073   53.8557 C.ar    1  ZINC000298969660   -0.2300
     18 C18        -5.9572    2.6430   52.8595 C.ar    1  ZINC000298969660    0.1500
     19 O19        -5.1916    2.7637   51.7432 O.3     1  ZINC000298969660   -0.2900
     20 C20        -4.3509    1.6570   51.4103 C.3     1  ZINC000298969660    0.0400
     21 C21        -2.9065    2.0696   51.5305 C.2     1  ZINC000298969660    0.5100
     22 O22        -2.0949    1.6799   50.7178 O.2     1  ZINC000298969660   -0.4900
     23 N23        -2.5166    2.8715   52.5411 N.am    1  ZINC000298969660   -0.6700
     24 C24        -1.1754    3.2545   52.6527 C.ar    1  ZINC000298969660    0.1400
     25 C25        -0.2461    2.8147   51.7192 C.ar    1  ZINC000298969660   -0.1400
     26 C26         1.0769    3.1946   51.8322 C.ar    1  ZINC000298969660   -0.1000
     27 C27         1.4768    4.0114   52.8737 C.ar    1  ZINC000298969660   -0.1300
     28 C28         0.5540    4.4507   53.8053 C.ar    1  ZINC000298969660   -0.1000
     29 C29        -0.7718    4.0798   53.6941 C.ar    1  ZINC000298969660   -0.1200
     30 C30        -6.8022    1.5544   53.0065 C.ar    1  ZINC000298969660   -0.1500
     31 H31       -12.5597   -0.2038   54.1344 H       1  ZINC000298969660    0.0600
     32 H32       -11.8894    0.0332   52.5026 H       1  ZINC000298969660    0.0700
     33 H33       -12.1993   -1.6120   53.1072 H       1  ZINC000298969660    0.0800
     34 H34       -10.6677   -2.7154   54.3316 H       1  ZINC000298969660    0.1000
     35 H35        -9.0190   -2.0479   54.3977 H       1  ZINC000298969660    0.0900
     36 H36       -12.0551   -0.5568   55.9349 H       1  ZINC000298969660    0.0800
     37 H37       -12.2643   -2.3011   56.2282 H       1  ZINC000298969660    0.0700
     38 H38       -12.8521   -0.9257   58.2367 H       1  ZINC000298969660    0.0700
     39 H39       -11.4880   -2.0278   58.5510 H       1  ZINC000298969660    0.0600
     40 H40       -11.2882    0.9376   57.8469 H       1  ZINC000298969660    0.0700
     41 H41       -10.9750    0.2113   59.4428 H       1  ZINC000298969660    0.0700
     42 H42        -8.8636    0.6221   58.1732 H       1  ZINC000298969660    0.0900
     43 H43        -9.1185   -1.1092   58.4997 H       1  ZINC000298969660    0.0400
     44 H44        -8.1429   -0.4517   54.7605 H       1  ZINC000298969660    0.4100
     45 H45        -8.1224    2.3130   56.0270 H       1  ZINC000298969660    0.1300
     46 H46        -6.6131    4.2382   55.7643 H       1  ZINC000298969660    0.1300
     47 H47        -5.2275    4.4534   53.7431 H       1  ZINC000298969660    0.1300
     48 H48        -4.5508    0.8308   52.0925 H       1  ZINC000298969660    0.1000
     49 H49        -4.5546    1.3410   50.3872 H       1  ZINC000298969660    0.1000
     50 H50        -3.1656    3.1831   53.1910 H       1  ZINC000298969660    0.4100
     51 H51        -0.5577    2.1761   50.9059 H       1  ZINC000298969660    0.1300
     52 H52         1.8001    2.8529   51.1064 H       1  ZINC000298969660    0.1300
     53 H53         2.5120    4.3068   52.9601 H       1  ZINC000298969660    0.1200
     54 H54         0.8695    5.0881   54.6180 H       1  ZINC000298969660    0.1300
     55 H55        -1.4920    4.4232   54.4220 H       1  ZINC000298969660    0.1300
     56 H56        -6.8564    0.8033   52.2325 H       1  ZINC000298969660    0.1500
@<TRIPOS>BOND
     1     1     2    1
     2     1    31    1
     3     1    32    1
     4     1    33    1
     5     2     3    1
     6     2    11   am
     7     3     4    1
     8     3    34    1
     9     3    35    1
    10     4     5    1
    11     4    10    1
    12     4     6    1
    13     6     7    1
    14     6    36    1
    15     6    37    1
    16     7     8    1
    17     7    38    1
    18     7    39    1
    19     8     9    1
    20     8    40    1
    21     8    41    1
    22     9    10    1
    23     9    42    1
    24     9    43    1
    25    11    12    2
    26    11    13   am
    27    13    14    1
    28    13    44    1
    29    14    30   ar
    30    14    15   ar
    31    15    16   ar
    32    15    45    1
    33    16    17   ar
    34    16    46    1
    35    17    18   ar
    36    17    47    1
    37    18    19    1
    38    18    30   ar
    39    19    20    1
    40    20    21    1
    41    20    48    1
    42    20    49    1
    43    21    22    2
    44    21    23   am
    45    23    24    1
    46    23    50    1
    47    24    29   ar
    48    24    25   ar
    49    25    26   ar
    50    25    51    1
    51    26    27   ar
    52    26    52    1
    53    27    28   ar
    54    27    53    1
    55    28    29   ar
    56    28    54    1
    57    29    55    1
    58    30    56    1
@<TRIPOS>SUBSTRUCTURE
     1 ZINC000298969660        1 TEMP              0 ****  ****    0 ROOT


##########                                Name:    ZINC000460972051
##########                DOCK_Rotatable_Bonds:                  10
##########                         Heavy_Atoms:                  29
##########                    Molecular_Weight:             417.572
##########                DOCK_Rotatable_Bonds:                  10
##########                       Formal_Charge:         3.31551e-07
##########                     HBond_Acceptors:                   7
##########                        HBond_Donors:                   2
##########                         Heavy_Atoms:                  29
##########                          Grid_Score:          -32.426201
##########                     Grid_vdw_energy:          -31.805336
##########                      Grid_es_energy:           -0.620864
##########           Internal_energy_repulsive:           33.989361

@<TRIPOS>MOLECULE
ZINC000460972051
 60 61 1 0 0
SMALL
USER_CHARGES


@<TRIPOS>ATOM
      1 C1         -5.4250    1.5998   50.9606 C.3     1  ZINC000460972051   -0.1800
      2 C2         -5.3631    1.3302   52.4654 C.3     1  ZINC000460972051    0.1000
      3 N3         -6.6881    1.5401   53.0540 N.am    1  ZINC000460972051   -0.6200
      4 C4         -7.6145    0.5630   52.9944 C.2     1  ZINC000460972051    0.7100
      5 O5         -7.3499   -0.4933   52.4534 O.2     1  ZINC000460972051   -0.5800
      6 N6         -8.8340    0.7567   53.5345 N.am    1  ZINC000460972051   -0.7400
      7 C7         -9.8404   -0.3060   53.4712 C.3     1  ZINC000460972051    0.2000
      8 H8         -9.5875   -0.9985   52.6682 H       1  ZINC000460972051    0.1100
      9 C9         -9.8717   -1.0587   54.8028 C.3     1  ZINC000460972051    0.1100
     10 N10        -9.9800   -0.0986   55.9041 N.am    1  ZINC000460972051   -1.1200
     11 S11       -10.4110   -0.6181   57.4162 S.o2    1  ZINC000460972051    2.7000
     12 O12        -9.5117   -1.6659   57.7519 O.2     1  ZINC000460972051   -0.9500
     13 O13       -10.5753    0.5491   58.2099 O.2     1  ZINC000460972051   -0.9600
     14 C14       -12.0055   -1.3554   57.2797 C.ar    1  ZINC000460972051   -0.6900
     15 C15       -12.8024   -1.0807   56.1845 C.ar    1  ZINC000460972051   -0.0100
     16 C16       -14.0535   -1.6593   56.0774 C.ar    1  ZINC000460972051   -0.1500
     17 C17       -14.5071   -2.5128   57.0654 C.ar    1  ZINC000460972051   -0.0200
     18 C18       -15.8710   -3.1430   56.9489 C.3     1  ZINC000460972051   -0.1300
     19 C19       -13.7093   -2.7887   58.1603 C.ar    1  ZINC000460972051   -0.1500
     20 C20       -12.4571   -2.2133   58.2655 C.ar    1  ZINC000460972051    0.0300
     21 C21       -11.5874   -2.5140   59.4589 C.3     1  ZINC000460972051   -0.1700
     22 C22       -11.1944    0.2995   53.2045 C.ar    1  ZINC000460972051   -0.1000
     23 C23       -11.4648    1.5932   53.6097 C.ar    1  ZINC000460972051   -0.1000
     24 C24       -12.7068    2.1487   53.3650 C.ar    1  ZINC000460972051   -0.1200
     25 C25       -13.6781    1.4108   52.7148 C.ar    1  ZINC000460972051   -0.1200
     26 C26       -13.4073    0.1174   52.3088 C.ar    1  ZINC000460972051   -0.1200
     27 C27       -12.1639   -0.4366   52.5497 C.ar    1  ZINC000460972051   -0.1000
     28 C28        -7.0062    2.8122   53.7074 C.3     1  ZINC000460972051    0.1500
     29 C29        -6.6423    2.7284   55.1911 C.3     1  ZINC000460972051   -0.1600
     30 C30        -6.2063    3.9379   53.0489 C.3     1  ZINC000460972051   -0.1600
     31 H31        -4.4392    1.4435   50.5226 H       1  ZINC000460972051    0.0700
     32 H32        -6.1398    0.9187   50.4987 H       1  ZINC000460972051    0.0600
     33 H33        -5.7402    2.6288   50.7885 H       1  ZINC000460972051    0.0700
     34 H34        -5.0479    0.3010   52.6376 H       1  ZINC000460972051    0.0700
     35 H35        -4.6482    2.0112   52.9274 H       1  ZINC000460972051    0.0900
     36 H36        -9.0454    1.5999   53.9650 H       1  ZINC000460972051    0.4000
     37 H37       -10.7302   -1.7302   54.8205 H       1  ZINC000460972051    0.0900
     38 H38        -8.9550   -1.6378   54.9145 H       1  ZINC000460972051    0.0900
     39 H39        -9.7992    0.8415   55.7474 H       1  ZINC000460972051    0.4200
     40 H40       -12.4480   -0.4137   55.4125 H       1  ZINC000460972051    0.1400
     41 H41       -14.6766   -1.4440   55.2219 H       1  ZINC000460972051    0.1300
     42 H42       -15.7885   -4.0928   56.4205 H       1  ZINC000460972051    0.0800
     43 H43       -16.2777   -3.3157   57.9453 H       1  ZINC000460972051    0.0700
     44 H44       -16.5333   -2.4764   56.3968 H       1  ZINC000460972051    0.0700
     45 H45       -14.0635   -3.4559   58.9321 H       1  ZINC000460972051    0.1300
     46 H46       -10.8930   -3.3163   59.2095 H       1  ZINC000460972051    0.0900
     47 H47       -11.0269   -1.6208   59.7344 H       1  ZINC000460972051    0.1000
     48 H48       -12.2135   -2.8227   60.2962 H       1  ZINC000460972051    0.0900
     49 H49       -10.7060    2.1698   54.1177 H       1  ZINC000460972051    0.1200
     50 H50       -12.9184    3.1591   53.6823 H       1  ZINC000460972051    0.1200
     51 H51       -14.6487    1.8445   52.5243 H       1  ZINC000460972051    0.1200
     52 H52       -14.1663   -0.4593   51.8011 H       1  ZINC000460972051    0.1200
     53 H53       -11.9524   -1.4471   52.2324 H       1  ZINC000460972051    0.1200
     54 H54        -8.0721    3.0163   53.6057 H       1  ZINC000460972051    0.1000
     55 H55        -7.2122    1.9264   55.6604 H       1  ZINC000460972051    0.0600
     56 H56        -5.5765    2.5243   55.2929 H       1  ZINC000460972051    0.0600
     57 H57        -6.8790    3.6749   55.6773 H       1  ZINC000460972051    0.0700
     58 H58        -6.4655    3.9976   51.9919 H       1  ZINC000460972051    0.0600
     59 H59        -6.4429    4.8843   53.5350 H       1  ZINC000460972051    0.0700
     60 H60        -5.1404    3.7338   53.1506 H       1  ZINC000460972051    0.0600
@<TRIPOS>BOND
     1     1     2    1
     2     1    31    1
     3     1    32    1
     4     1    33    1
     5     2     3    1
     6     2    34    1
     7     2    35    1
     8     3     4   am
     9     3    28    1
    10     4     5    2
    11     4     6   am
    12     6     7    1
    13     6    36    1
    14     7     8    1
    15     7     9    1
    16     7    22    1
    17     9    10    1
    18     9    37    1
    19     9    38    1
    20    10    11   am
    21    10    39    1
    22    11    12    2
    23    11    13    2
    24    11    14    1
    25    14    20   ar
    26    14    15   ar
    27    15    16   ar
    28    15    40    1
    29    16    17   ar
    30    16    41    1
    31    17    18    1
    32    17    19   ar
    33    18    42    1
    34    18    43    1
    35    18    44    1
    36    19    20   ar
    37    19    45    1
    38    20    21    1
    39    21    46    1
    40    21    47    1
    41    21    48    1
    42    22    27   ar
    43    22    23   ar
    44    23    24   ar
    45    23    49    1
    46    24    25   ar
    47    24    50    1
    48    25    26   ar
    49    25    51    1
    50    26    27   ar
    51    26    52    1
    52    27    53    1
    53    28    29    1
    54    28    30    1
    55    28    54    1
    56    29    55    1
    57    29    56    1
    58    29    57    1
    59    30    58    1
    60    30    59    1
    61    30    60    1
@<TRIPOS>SUBSTRUCTURE
     1 ZINC000460972051        1 TEMP              0 ****  ****    0 ROOT


##########                                Name:    ZINC000498646479
##########                DOCK_Rotatable_Bonds:                   7
##########                         Heavy_Atoms:                  29
##########                    Molecular_Weight:              407.58
##########                DOCK_Rotatable_Bonds:                   7
##########                       Formal_Charge:          -0.0199997
##########                     HBond_Acceptors:                   5
##########                        HBond_Donors:                   0
##########                         Heavy_Atoms:                  29
##########                          Grid_Score:          -32.413166
##########                     Grid_vdw_energy:          -33.027882
##########                      Grid_es_energy:            0.614715
##########           Internal_energy_repulsive:           25.162312

@<TRIPOS>MOLECULE
ZINC000498646479
 58 61 1 0 0
SMALL
USER_CHARGES


@<TRIPOS>ATOM
      1 C1         -7.6228    1.4978   67.2580 C.3     1  ZINC000498646479   -0.1500
      2 C2         -7.2538    2.5532   66.2136 C.3     1  ZINC000498646479   -0.0600
      3 C3         -7.6119    2.0471   64.8400 C.2     1  ZINC000498646479   -0.1700
      4 C4         -8.7865    2.2306   64.2350 C.2     1  ZINC000498646479   -0.1400
      5 C5         -8.8851    1.6735   62.9716 C.2     1  ZINC000498646479   -0.1300
      6 C6         -7.7906    1.0378   62.5507 C.2     1  ZINC000498646479   -0.1900
      7 C7         -7.6438    0.3508   61.2175 C.3     1  ZINC000498646479    0.1300
      8 N8         -7.0964    1.2974   60.2364 N.3     1  ZINC000498646479   -0.5300
      9 C9         -7.9641    2.4750   60.1002 C.3     1  ZINC000498646479    0.0400
     10 C10        -7.2732    3.5144   59.2111 C.3     1  ZINC000498646479    0.1200
     11 N11        -6.8970    2.8692   57.9440 N.am    1  ZINC000498646479   -0.6100
     12 C12        -7.2345    3.4192   56.7608 C.2     1  ZINC000498646479    0.5200
     13 O13        -7.8565    4.4599   56.7313 O.2     1  ZINC000498646479   -0.5400
     14 C14        -6.8388    2.7411   55.4745 C.3     1  ZINC000498646479   -0.1000
     15 H15        -5.8423    2.3126   55.5812 H       1  ZINC000498646479    0.0900
     16 C16        -7.8404    1.6296   55.1548 C.3     1  ZINC000498646479   -0.1500
     17 C17        -6.8343    3.7658   54.3383 C.3     1  ZINC000498646479   -0.0600
     18 C18        -6.1177    3.1890   53.1446 C.ar    1  ZINC000498646479   -0.1200
     19 C19        -4.7137    3.2208   53.0664 C.ar    1  ZINC000498646479   -0.0200
     20 C20        -3.9207    3.7812   54.0782 C.ar    1  ZINC000498646479   -0.1200
     21 C21        -2.5652    3.7818   53.9447 C.ar    1  ZINC000498646479   -0.1000
     22 C22        -1.9540    3.2347   52.8178 C.ar    1  ZINC000498646479   -0.1200
     23 C23        -2.6925    2.6822   51.8159 C.ar    1  ZINC000498646479   -0.0900
     24 C24        -4.0925    2.6629   51.9185 C.ar    1  ZINC000498646479   -0.1100
     25 C25        -4.9057    2.1069   50.9182 C.ar    1  ZINC000498646479    0.1400
     26 N26        -6.2108    2.1114   51.0588 N.ar    1  ZINC000498646479   -0.4800
     27 C27        -6.8162    2.6211   52.1225 C.ar    1  ZINC000498646479    0.0800
     28 C28        -6.1425    1.6080   58.0024 C.3     1  ZINC000498646479    0.1100
     29 C29        -6.8779    0.6437   58.9392 C.3     1  ZINC000498646479    0.0400
     30 S30        -6.5424    1.1310   63.7863 S.3     1  ZINC000498646479    0.1300
     31 H31        -7.3638    1.8638   68.2516 H       1  ZINC000498646479    0.0600
     32 H32        -8.6937    1.2995   67.2116 H       1  ZINC000498646479    0.0600
     33 H33        -7.0739    0.5782   67.0552 H       1  ZINC000498646479    0.0600
     34 H34        -7.8028    3.4727   66.4165 H       1  ZINC000498646479    0.0800
     35 H35        -6.1830    2.7515   66.2600 H       1  ZINC000498646479    0.0700
     36 H36        -9.5991    2.7722   64.6961 H       1  ZINC000498646479    0.1400
     37 H37        -9.7806    1.7477   62.3724 H       1  ZINC000498646479    0.1300
     38 H38        -6.9681   -0.4985   61.3188 H       1  ZINC000498646479    0.0900
     39 H39        -8.6192    0.0008   60.8796 H       1  ZINC000498646479    0.0500
     40 H40        -8.9099    2.1793   59.6465 H       1  ZINC000498646479    0.0400
     41 H41        -8.1509    2.9048   61.0844 H       1  ZINC000498646479    0.1000
     42 H42        -7.9573    4.3394   59.0130 H       1  ZINC000498646479    0.1000
     43 H43        -6.3796    3.8879   59.7112 H       1  ZINC000498646479    0.0800
     44 H44        -7.5087    1.0847   54.2709 H       1  ZINC000498646479    0.0700
     45 H45        -7.9055    0.9450   56.0005 H       1  ZINC000498646479    0.0600
     46 H46        -8.8205    2.0671   54.9653 H       1  ZINC000498646479    0.0700
     47 H47        -7.8608    4.0082   54.0635 H       1  ZINC000498646479    0.0900
     48 H48        -6.3227    4.6705   54.6669 H       1  ZINC000498646479    0.0800
     49 H49        -4.3812    4.2092   54.9564 H       1  ZINC000498646479    0.1400
     50 H50        -1.9543    4.2133   54.7239 H       1  ZINC000498646479    0.1300
     51 H51        -0.8772    3.2494   52.7377 H       1  ZINC000498646479    0.1300
     52 H52        -2.2048    2.2621   50.9488 H       1  ZINC000498646479    0.1300
     53 H53        -4.4583    1.6764   50.0345 H       1  ZINC000498646479    0.1600
     54 H54        -7.8946    2.5929   52.1761 H       1  ZINC000498646479    0.1500
     55 H55        -6.0792    1.1727   57.0052 H       1  ZINC000498646479    0.0900
     56 H56        -5.1403    1.7984   58.3862 H       1  ZINC000498646479    0.0800
     57 H57        -6.2771   -0.2546   59.0812 H       1  ZINC000498646479    0.0900
     58 H58        -7.8390    0.3736   58.5016 H       1  ZINC000498646479    0.0400
@<TRIPOS>BOND
     1     1     2    1
     2     1    31    1
     3     1    32    1
     4     1    33    1
     5     2     3    1
     6     2    34    1
     7     2    35    1
     8     3    30    1
     9     3     4    2
    10     4     5    1
    11     4    36    1
    12     5     6    2
    13     5    37    1
    14     6     7    1
    15     6    30    1
    16     7     8    1
    17     7    38    1
    18     7    39    1
    19     8    29    1
    20     8     9    1
    21     9    10    1
    22     9    40    1
    23     9    41    1
    24    10    11    1
    25    10    42    1
    26    10    43    1
    27    11    12   am
    28    11    28    1
    29    12    13    2
    30    12    14    1
    31    14    15    1
    32    14    16    1
    33    14    17    1
    34    16    44    1
    35    16    45    1
    36    16    46    1
    37    17    18    1
    38    17    47    1
    39    17    48    1
    40    18    27   ar
    41    18    19   ar
    42    19    24   ar
    43    19    20   ar
    44    20    21   ar
    45    20    49    1
    46    21    22   ar
    47    21    50    1
    48    22    23   ar
    49    22    51    1
    50    23    24   ar
    51    23    52    1
    52    24    25   ar
    53    25    26   ar
    54    25    53    1
    55    26    27   ar
    56    27    54    1
    57    28    29    1
    58    28    55    1
    59    28    56    1
    60    29    57    1
    61    29    58    1
@<TRIPOS>SUBSTRUCTURE
     1 ZINC000498646479        1 TEMP              0 ****  ****    0 ROOT


##########                                Name:    ZINC000263872566
##########                DOCK_Rotatable_Bonds:                   9
##########                         Heavy_Atoms:                  26
##########                    Molecular_Weight:             362.469
##########                DOCK_Rotatable_Bonds:                   9
##########                       Formal_Charge:           0.0300001
##########                     HBond_Acceptors:                   6
##########                        HBond_Donors:                   2
##########                         Heavy_Atoms:                  26
##########                          Grid_Score:          -32.398167
##########                     Grid_vdw_energy:          -31.927040
##########                      Grid_es_energy:           -0.471128
##########           Internal_energy_repulsive:           22.319469

@<TRIPOS>MOLECULE
ZINC000263872566
 56 57 1 0 0
SMALL
USER_CHARGES


@<TRIPOS>ATOM
      1 C1          1.1667    1.8923   58.9109 C.3     1  ZINC000263872566   -0.1800
      2 C2          0.6472    3.3131   58.6818 C.3     1  ZINC000263872566    0.1400
      3 H3         -0.1870    3.5080   59.3558 H       1  ZINC000263872566    0.0700
      4 O4          1.6950    4.2504   58.9375 O.3     1  ZINC000263872566   -0.5600
      5 C5          0.1837    3.4545   57.2548 C.ar    1  ZINC000263872566   -0.0800
      6 C6          1.0779    3.8370   56.2724 C.ar    1  ZINC000263872566   -0.0900
      7 C7          0.6529    3.9669   54.9635 C.ar    1  ZINC000263872566   -0.1000
      8 C8         -0.6663    3.7136   54.6369 C.ar    1  ZINC000263872566   -0.1100
      9 C9         -1.1298    3.8555   53.2099 C.3     1  ZINC000263872566    0.1800
     10 N10        -2.5827    3.6777   53.1485 N.am    1  ZINC000263872566   -0.7400
     11 C11        -3.1211    2.8395   52.2408 C.2     1  ZINC000263872566    0.7100
     12 O12        -2.4011    2.2309   51.4729 O.2     1  ZINC000263872566   -0.5900
     13 N13        -4.4578    2.6759   52.1842 N.am    1  ZINC000263872566   -0.6300
     14 C14        -5.0592    1.7612   51.2042 C.3     1  ZINC000263872566    0.1100
     15 C15        -5.9699    0.7759   51.9435 C.3     1  ZINC000263872566   -0.1200
     16 C16        -6.9857    1.5563   52.7809 C.3     1  ZINC000263872566   -0.0800
     17 C17        -7.9051    0.5906   53.4831 C.2     1  ZINC000263872566    0.4700
     18 O18        -8.2882   -0.4029   52.9118 O.2     1  ZINC000263872566   -0.5000
     19 O19        -8.2985    0.8340   54.7431 O.3     1  ZINC000263872566   -0.3500
     20 C20        -9.7083    1.1125   54.9514 C.3     1  ZINC000263872566    0.1200
     21 C21        -9.8788    1.9692   56.2075 C.3     1  ZINC000263872566   -0.1800
     22 C22       -10.2635    1.8659   53.7409 C.3     1  ZINC000263872566   -0.1400
     23 C23       -10.4682   -0.2040   55.1249 C.3     1  ZINC000263872566   -0.1800
     24 C24        -6.2487    2.4052   53.8193 C.3     1  ZINC000263872566   -0.1300
     25 C25        -5.3407    3.4043   53.1053 C.3     1  ZINC000263872566    0.1300
     26 C26        -1.5601    3.3297   55.6190 C.ar    1  ZINC000263872566   -0.1000
     27 C27        -1.1342    3.1963   56.9272 C.ar    1  ZINC000263872566   -0.1100
     28 H28         2.0009    1.6975   58.2369 H       1  ZINC000263872566    0.0700
     29 H29         1.5019    1.7900   59.9431 H       1  ZINC000263872566    0.0600
     30 H30         0.3675    1.1774   58.7159 H       1  ZINC000263872566    0.0700
     31 H31         2.4726    4.1345   58.3743 H       1  ZINC000263872566    0.3800
     32 H32         2.1085    4.0349   56.5276 H       1  ZINC000263872566    0.1300
     33 H33         1.3512    4.2664   54.1961 H       1  ZINC000263872566    0.1300
     34 H34        -0.8691    4.8472   52.8401 H       1  ZINC000263872566    0.0800
     35 H35        -0.6448    3.0988   52.5934 H       1  ZINC000263872566    0.0800
     36 H36        -3.1571    4.1632   53.7610 H       1  ZINC000263872566    0.4000
     37 H37        -5.6460    2.3316   50.4842 H       1  ZINC000263872566    0.0800
     38 H38        -4.2727    1.2131   50.6854 H       1  ZINC000263872566    0.0800
     39 H39        -6.4964    0.1538   51.2198 H       1  ZINC000263872566    0.0900
     40 H40        -5.3681    0.1444   52.5971 H       1  ZINC000263872566    0.0800
     41 H41        -7.5704    2.2061   52.1297 H       1  ZINC000263872566    0.1100
     42 H42        -9.3375    2.9072   56.0838 H       1  ZINC000263872566    0.0600
     43 H43       -10.9371    2.1783   56.3638 H       1  ZINC000263872566    0.0700
     44 H44        -9.4833    1.4324   57.0698 H       1  ZINC000263872566    0.0800
     45 H45       -10.1421    1.2557   52.8461 H       1  ZINC000263872566    0.0700
     46 H46       -11.3218    2.0751   53.8973 H       1  ZINC000263872566    0.0800
     47 H47        -9.7221    2.8040   53.6173 H       1  ZINC000263872566    0.0700
     48 H48       -10.0727   -0.7408   55.9873 H       1  ZINC000263872566    0.0800
     49 H49       -11.5264    0.0050   55.2812 H       1  ZINC000263872566    0.0700
     50 H50       -10.3467   -0.8144   54.2301 H       1  ZINC000263872566    0.0600
     51 H51        -6.9736    2.9427   54.4305 H       1  ZINC000263872566    0.0900
     52 H52        -5.6443    1.7584   54.4552 H       1  ZINC000263872566    0.0700
     53 H53        -4.7411    3.9425   53.8393 H       1  ZINC000263872566    0.1000
     54 H54        -5.9483    4.1099   52.5385 H       1  ZINC000263872566    0.0700
     55 H55        -2.5907    3.1316   55.3638 H       1  ZINC000263872566    0.1300
     56 H56        -1.8325    2.8964   57.6946 H       1  ZINC000263872566    0.1300
@<TRIPOS>BOND
     1     1     2    1
     2     1    28    1
     3     1    29    1
     4     1    30    1
     5     2     3    1
     6     2     4    1
     7     2     5    1
     8     4    31    1
     9     5    27   ar
    10     5     6   ar
    11     6     7   ar
    12     6    32    1
    13     7     8   ar
    14     7    33    1
    15     8     9    1
    16     8    26   ar
    17     9    10    1
    18     9    34    1
    19     9    35    1
    20    10    11   am
    21    10    36    1
    22    11    12    2
    23    11    13   am
    24    13    25    1
    25    13    14    1
    26    14    15    1
    27    14    37    1
    28    14    38    1
    29    15    16    1
    30    15    39    1
    31    15    40    1
    32    16    17    1
    33    16    24    1
    34    16    41    1
    35    17    18    2
    36    17    19    1
    37    19    20    1
    38    20    21    1
    39    20    22    1
    40    20    23    1
    41    21    42    1
    42    21    43    1
    43    21    44    1
    44    22    45    1
    45    22    46    1
    46    22    47    1
    47    23    48    1
    48    23    49    1
    49    23    50    1
    50    24    25    1
    51    24    51    1
    52    24    52    1
    53    25    53    1
    54    25    54    1
    55    26    27   ar
    56    26    55    1
    57    27    56    1
@<TRIPOS>SUBSTRUCTURE
     1 ZINC000263872566        1 TEMP              0 ****  ****    0 ROOT


##########                                Name:    ZINC000824084043
##########                DOCK_Rotatable_Bonds:                  11
##########                         Heavy_Atoms:                  27
##########                    Molecular_Weight:             382.547
##########                DOCK_Rotatable_Bonds:                  11
##########                       Formal_Charge:        -6.85453e-07
##########                     HBond_Acceptors:                   7
##########                        HBond_Donors:                   3
##########                         Heavy_Atoms:                  27
##########                          Grid_Score:          -32.351368
##########                     Grid_vdw_energy:          -24.507296
##########                      Grid_es_energy:           -7.844074
##########           Internal_energy_repulsive:           27.153391

@<TRIPOS>MOLECULE
ZINC000824084043
 65 66 1 0 0
SMALL
USER_CHARGES


@<TRIPOS>ATOM
      1 C1        -15.1839   -3.5046   58.3663 C.3     1  ZINC000824084043   -0.1400
      2 C2        -14.0361   -2.5118   58.5605 C.3     1  ZINC000824084043   -0.1000
      3 C3        -13.1251   -2.5386   57.3316 C.3     1  ZINC000824084043   -0.1300
      4 C4        -14.6053   -1.1034   58.7428 C.3     1  ZINC000824084043    0.1700
      5 H5        -15.2228   -1.0744   59.6405 H       1  ZINC000824084043    0.0700
      6 C6        -13.4562   -0.1028   58.8817 C.3     1  ZINC000824084043   -0.1400
      7 C7        -12.4216   -0.6482   59.8682 C.3     1  ZINC000824084043    0.1300
      8 N8        -11.7387    0.4683   60.5266 N.am    1  ZINC000824084043   -0.6200
      9 C9        -11.9065    0.6834   61.9659 C.3     1  ZINC000824084043    0.0800
     10 C10       -10.9560    1.2975   59.8080 C.2     1  ZINC000824084043    0.7000
     11 O11       -10.3903    2.2250   60.3540 O.2     1  ZINC000824084043   -0.5800
     12 N12       -10.8003    1.0986   58.4841 N.am    1  ZINC000824084043   -0.7500
     13 C13        -9.9482    1.9988   57.7033 C.3     1  ZINC000824084043    0.1600
     14 C14        -8.6582    1.2718   57.3123 C.3     1  ZINC000824084043   -0.1600
     15 C15        -7.8089    2.1901   56.4308 C.3     1  ZINC000824084043   -0.0100
     16 N16        -8.5596    2.5434   55.2199 N.4     1  ZINC000824084043   -0.3800
     17 H17        -8.8294    1.7007   54.7349 H       1  ZINC000824084043    0.4200
     18 C18        -7.7128    3.3621   54.3420 C.3     1  ZINC000824084043    0.0000
     19 C19        -6.6192    2.4865   53.7269 C.3     1  ZINC000824084043   -0.1200
     20 C20        -7.2137    1.1449   53.2314 C.3     1  ZINC000824084043   -0.1400
     21 C21        -6.1937    0.6956   52.1559 C.3     1  ZINC000824084043   -0.1200
     22 C22        -5.7842    2.0059   51.4520 C.3     1  ZINC000824084043   -0.1300
     23 C23        -6.0548    3.1446   52.4509 C.3     1  ZINC000824084043   -0.1100
     24 C24        -9.7617    3.3034   55.5831 C.3     1  ZINC000824084043    0.0000
     25 C25       -10.6862    2.4279   56.4319 C.3     1  ZINC000824084043   -0.1600
     26 N26       -15.4209   -0.7517   57.5776 N.am    1  ZINC000824084043   -0.7800
     27 C27       -16.3605    0.2093   57.6780 C.2     1  ZINC000824084043    0.6600
     28 O28       -17.0403    0.5039   56.7049 O.co2   1  ZINC000824084043   -0.7200
     29 O29       -16.5333    0.7867   58.7424 O.co2   1  ZINC000824084043   -0.7300
     30 H30       -14.7783   -4.5079   58.2365 H       1  ZINC000824084043    0.0500
     31 H31       -15.8329   -3.4855   59.2418 H       1  ZINC000824084043    0.0500
     32 H32       -15.7581   -3.2276   57.4823 H       1  ZINC000824084043    0.0500
     33 H33       -13.4618   -2.7887   59.4446 H       1  ZINC000824084043    0.0500
     34 H34       -13.6994   -2.2616   56.4476 H       1  ZINC000824084043    0.0600
     35 H35       -12.3073   -1.8313   57.4700 H       1  ZINC000824084043    0.0700
     36 H36       -12.7196   -3.5419   57.2018 H       1  ZINC000824084043    0.0300
     37 H37       -12.9869    0.0488   57.9097 H       1  ZINC000824084043    0.0700
     38 H38       -13.8439    0.8470   59.2500 H       1  ZINC000824084043    0.0600
     39 H39       -12.9221   -1.2609   60.6179 H       1  ZINC000824084043    0.0900
     40 H40       -11.6920   -1.2545   59.3312 H       1  ZINC000824084043    0.0900
     41 H41       -11.1380    0.1322   62.5078 H       1  ZINC000824084043    0.0600
     42 H42       -11.8154    1.7467   62.1875 H       1  ZINC000824084043    0.0600
     43 H43       -12.8912    0.3313   62.2734 H       1  ZINC000824084043    0.0800
     44 H44       -11.2526    0.3593   58.0483 H       1  ZINC000824084043    0.4000
     45 H45        -9.7058    2.8789   58.2988 H       1  ZINC000824084043    0.1100
     46 H46        -8.0999    1.0122   58.2117 H       1  ZINC000824084043    0.1200
     47 H47        -8.9047    0.3643   56.7613 H       1  ZINC000824084043    0.0900
     48 H48        -7.5629    3.0972   56.9828 H       1  ZINC000824084043    0.1300
     49 H49        -6.8896    1.6757   56.1507 H       1  ZINC000824084043    0.1300
     50 H50        -8.3225    3.7933   53.5481 H       1  ZINC000824084043    0.1300
     51 H51        -7.2539    4.1622   54.9229 H       1  ZINC000824084043    0.1300
     52 H52        -5.8223    2.3093   54.4493 H       1  ZINC000824084043    0.1000
     53 H53        -7.2625    0.4203   54.0442 H       1  ZINC000824084043    0.0700
     54 H54        -8.1984    1.2984   52.7896 H       1  ZINC000824084043    0.0800
     55 H55        -5.3278    0.2270   52.6235 H       1  ZINC000824084043    0.0700
     56 H56        -6.6623    0.0124   51.4475 H       1  ZINC000824084043    0.0800
     57 H57        -4.7250    1.9771   51.1964 H       1  ZINC000824084043    0.0700
     58 H58        -6.3822    2.1488   50.5519 H       1  ZINC000824084043    0.0700
     59 H59        -6.7840    3.8401   52.0357 H       1  ZINC000824084043    0.0700
     60 H60        -5.1268    3.6684   52.6802 H       1  ZINC000824084043    0.0800
     61 H61        -9.4741    4.1868   56.1531 H       1  ZINC000824084043    0.1300
     62 H62       -10.2840    3.6108   54.6772 H       1  ZINC000824084043    0.1300
     63 H63       -10.9746    1.5444   55.8627 H       1  ZINC000824084043    0.0900
     64 H64       -11.5772    2.9946   56.7020 H       1  ZINC000824084043    0.1200
     65 H65       -15.2846   -1.2106   56.7340 H       1  ZINC000824084043    0.3600
@<TRIPOS>BOND
     1     1     2    1
     2     1    30    1
     3     1    31    1
     4     1    32    1
     5     2     3    1
     6     2     4    1
     7     2    33    1
     8     3    34    1
     9     3    35    1
    10     3    36    1
    11     4     5    1
    12     4     6    1
    13     4    26    1
    14     6     7    1
    15     6    37    1
    16     6    38    1
    17     7     8    1
    18     7    39    1
    19     7    40    1
    20     8     9    1
    21     8    10   am
    22     9    41    1
    23     9    42    1
    24     9    43    1
    25    10    11    2
    26    10    12   am
    27    12    13    1
    28    12    44    1
    29    13    25    1
    30    13    14    1
    31    13    45    1
    32    14    15    1
    33    14    46    1
    34    14    47    1
    35    15    16    1
    36    15    48    1
    37    15    49    1
    38    16    17    1
    39    16    18    1
    40    16    24    1
    41    18    19    1
    42    18    50    1
    43    18    51    1
    44    19    23    1
    45    19    20    1
    46    19    52    1
    47    20    21    1
    48    20    53    1
    49    20    54    1
    50    21    22    1
    51    21    55    1
    52    21    56    1
    53    22    23    1
    54    22    57    1
    55    22    58    1
    56    23    59    1
    57    23    60    1
    58    24    25    1
    59    24    61    1
    60    24    62    1
    61    25    63    1
    62    25    64    1
    63    26    27   am
    64    26    65    1
    65    27    28   ar
    66    27    29   ar
@<TRIPOS>SUBSTRUCTURE
     1 ZINC000824084043        1 TEMP              0 ****  ****    0 ROOT


##########                                Name:    ZINC000762020937
##########                DOCK_Rotatable_Bonds:                  10
##########                         Heavy_Atoms:                  28
##########                    Molecular_Weight:             391.467
##########                DOCK_Rotatable_Bonds:                  10
##########                       Formal_Charge:         -1.8999e-07
##########                     HBond_Acceptors:                   8
##########                        HBond_Donors:                   1
##########                         Heavy_Atoms:                  28
##########                          Grid_Score:          -32.350971
##########                     Grid_vdw_energy:          -32.271042
##########                      Grid_es_energy:           -0.079928
##########           Internal_energy_repulsive:           42.955441

@<TRIPOS>MOLECULE
ZINC000762020937
 57 58 1 0 0
SMALL
USER_CHARGES


@<TRIPOS>ATOM
      1 C1         -4.4843    2.1343   50.9894 C.3     1  ZINC000762020937    0.0200
      2 O2         -4.6949    1.6210   52.3064 O.3     1  ZINC000762020937   -0.3000
      3 C3         -5.9276    1.1181   52.5832 C.ar    1  ZINC000762020937    0.1100
      4 C4         -6.2187   -0.2048   52.2934 C.ar    1  ZINC000762020937   -0.1700
      5 C5         -7.4727   -0.7148   52.5759 C.ar    1  ZINC000762020937   -0.1000
      6 C6         -8.4379    0.0928   53.1470 C.ar    1  ZINC000762020937   -0.1000
      7 C7         -9.8030   -0.4679   53.4524 C.3     1  ZINC000762020937    0.0200
      8 C8        -10.0374   -0.4368   54.9407 C.2     1  ZINC000762020937    0.1900
      9 N9         -9.7910   -1.4046   55.7905 N.2     1  ZINC000762020937   -0.4700
     10 C10       -10.1542   -0.9298   56.9952 C.2     1  ZINC000762020937    0.1600
     11 C11       -10.0661   -1.6656   58.3074 C.3     1  ZINC000762020937    0.2600
     12 H12        -9.1110   -2.1875   58.3680 H       1  ZINC000762020937    0.1200
     13 N13       -10.1705   -0.7087   59.4118 N.am    1  ZINC000762020937   -0.7100
     14 C14        -9.0581   -0.1426   59.9205 C.2     1  ZINC000762020937    0.6600
     15 O15        -7.9687   -0.4249   59.4622 O.2     1  ZINC000762020937   -0.5600
     16 O16        -9.1539    0.7356   60.9365 O.3     1  ZINC000762020937   -0.3600
     17 C17        -7.9212    1.3518   61.3937 C.3     1  ZINC000762020937    0.1400
     18 C18        -6.9715    0.2696   61.9112 C.3     1  ZINC000762020937   -0.1800
     19 C19        -7.2613    2.0961   60.2312 C.3     1  ZINC000762020937   -0.1400
     20 C20        -8.2318    2.3390   62.5206 C.3     1  ZINC000762020937   -0.1800
     21 C21       -11.2080   -2.6794   58.4015 C.3     1  ZINC000762020937   -0.1000
     22 C22       -12.5257   -1.9999   58.0238 C.3     1  ZINC000762020937   -0.1400
     23 C23       -10.9396   -3.8406   57.4420 C.3     1  ZINC000762020937   -0.1400
     24 N24       -10.5947    0.2801   56.8201 N.2     1  ZINC000762020937   -0.3700
     25 O25       -10.5307    0.5845   55.6476 O.3     1  ZINC000762020937    0.0900
     26 C26        -8.1537    1.4143   53.4392 C.ar    1  ZINC000762020937   -0.1500
     27 C27        -6.8980    1.9300   53.1636 C.ar    1  ZINC000762020937    0.1000
     28 O28        -6.6169    3.2293   53.4502 O.3     1  ZINC000762020937   -0.3100
     29 C29        -6.2061    3.5246   54.7867 C.3     1  ZINC000762020937    0.0200
     30 H30        -4.6476    1.3410   50.2599 H       1  ZINC000762020937    0.0600
     31 H31        -5.1824    2.9500   50.8014 H       1  ZINC000762020937    0.0600
     32 H32        -3.4623    2.5033   50.9023 H       1  ZINC000762020937    0.1000
     33 H33        -5.4665   -0.8379   51.8465 H       1  ZINC000762020937    0.1400
     34 H34        -7.6983   -1.7465   52.3495 H       1  ZINC000762020937    0.1300
     35 H35       -10.5627    0.1327   52.9523 H       1  ZINC000762020937    0.1200
     36 H36        -9.8610   -1.4968   53.0970 H       1  ZINC000762020937    0.1200
     37 H37       -11.0402   -0.4823   59.7769 H       1  ZINC000762020937    0.4100
     38 H38        -6.7502   -0.4338   61.1084 H       1  ZINC000762020937    0.0600
     39 H39        -6.0461    0.7321   62.2544 H       1  ZINC000762020937    0.0700
     40 H40        -7.4416   -0.2606   62.7394 H       1  ZINC000762020937    0.0900
     41 H41        -7.9379    2.8670   59.8625 H       1  ZINC000762020937    0.0700
     42 H42        -6.3358    2.5585   60.5744 H       1  ZINC000762020937    0.0800
     43 H43        -7.0399    1.3927   59.4284 H       1  ZINC000762020937    0.0700
     44 H44        -8.7020    1.8088   63.3488 H       1  ZINC000762020937    0.0900
     45 H45        -7.3065    2.8015   62.8638 H       1  ZINC000762020937    0.0700
     46 H46        -8.9084    3.1100   62.1519 H       1  ZINC000762020937    0.0600
     47 H47       -11.2741   -3.0587   59.4213 H       1  ZINC000762020937    0.0800
     48 H48       -12.4597   -1.6206   57.0040 H       1  ZINC000762020937    0.0600
     49 H49       -13.3393   -2.7222   58.0908 H       1  ZINC000762020937    0.0600
     50 H50       -12.7169   -1.1727   58.7074 H       1  ZINC000762020937    0.0500
     51 H51       -10.0008   -4.3247   57.7111 H       1  ZINC000762020937    0.0500
     52 H52       -11.7532   -4.5628   57.5091 H       1  ZINC000762020937    0.0600
     53 H53       -10.8735   -3.4613   56.4223 H       1  ZINC000762020937    0.0700
     54 H54        -8.9098    2.0432   53.8854 H       1  ZINC000762020937    0.1400
     55 H55        -5.2966    2.9701   55.0181 H       1  ZINC000762020937    0.0600
     56 H56        -6.0138    4.5933   54.8800 H       1  ZINC000762020937    0.1000
     57 H57        -6.9946    3.2353   55.4815 H       1  ZINC000762020937    0.0600
@<TRIPOS>BOND
     1     1     2    1
     2     1    30    1
     3     1    31    1
     4     1    32    1
     5     2     3    1
     6     3    27   ar
     7     3     4   ar
     8     4     5   ar
     9     4    33    1
    10     5     6   ar
    11     5    34    1
    12     6     7    1
    13     6    26   ar
    14     7     8    1
    15     7    35    1
    16     7    36    1
    17     8    25    1
    18     8     9    2
    19     9    10    1
    20    10    11    1
    21    10    24    2
    22    11    12    1
    23    11    13    1
    24    11    21    1
    25    13    14   am
    26    13    37    1
    27    14    15    2
    28    14    16    1
    29    16    17    1
    30    17    18    1
    31    17    19    1
    32    17    20    1
    33    18    38    1
    34    18    39    1
    35    18    40    1
    36    19    41    1
    37    19    42    1
    38    19    43    1
    39    20    44    1
    40    20    45    1
    41    20    46    1
    42    21    22    1
    43    21    23    1
    44    21    47    1
    45    22    48    1
    46    22    49    1
    47    22    50    1
    48    23    51    1
    49    23    52    1
    50    23    53    1
    51    24    25    1
    52    26    27   ar
    53    26    54    1
    54    27    28    1
    55    28    29    1
    56    29    55    1
    57    29    56    1
    58    29    57    1
@<TRIPOS>SUBSTRUCTURE
     1 ZINC000762020937        1 TEMP              0 ****  ****    0 ROOT


##########                                Name:    ZINC000546142192
##########                DOCK_Rotatable_Bonds:                  12
##########                         Heavy_Atoms:                  31
##########                    Molecular_Weight:             420.511
##########                DOCK_Rotatable_Bonds:                  12
##########                       Formal_Charge:          -0.0599997
##########                     HBond_Acceptors:                   7
##########                        HBond_Donors:                   2
##########                         Heavy_Atoms:                  31
##########                          Grid_Score:          -32.338036
##########                     Grid_vdw_energy:          -30.278912
##########                      Grid_es_energy:           -2.059126
##########           Internal_energy_repulsive:           15.751609

@<TRIPOS>MOLECULE
ZINC000546142192
 59 61 1 0 0
SMALL
USER_CHARGES


@<TRIPOS>ATOM
      1 C1        -16.1752    2.0724   58.4892 C.3     1  ZINC000546142192    0.0300
      2 O2        -15.1082    1.1002   58.3316 O.3     1  ZINC000546142192   -0.3600
      3 C3        -15.3720   -0.1607   58.7089 C.2     1  ZINC000546142192    0.4600
      4 O4        -16.5155   -0.5167   58.8690 O.2     1  ZINC000546142192   -0.5100
      5 C5        -14.2419   -1.1323   58.9327 C.3     1  ZINC000546142192   -0.0800
      6 H6        -13.2942   -0.5941   58.9297 H       1  ZINC000546142192    0.1100
      7 C7        -14.4284   -1.8294   60.2819 C.3     1  ZINC000546142192   -0.1500
      8 C8        -14.2388   -2.1770   57.8149 C.3     1  ZINC000546142192   -0.0600
      9 C9        -13.1031   -1.8935   56.8656 C.ar    1  ZINC000546142192   -0.1000
     10 C10       -11.7989   -2.1293   57.2602 C.ar    1  ZINC000546142192   -0.0900
     11 C11       -10.7559   -1.8709   56.3924 C.ar    1  ZINC000546142192   -0.1200
     12 C12       -11.0181   -1.3739   55.1226 C.ar    1  ZINC000546142192    0.1600
     13 N13        -9.9636   -1.1115   54.2407 N.am    1  ZINC000546142192   -0.6900
     14 C14        -9.2063   -0.0088   54.4051 C.2     1  ZINC000546142192    0.7100
     15 O15        -9.4393    0.7579   55.3195 O.2     1  ZINC000546142192   -0.5700
     16 N16        -8.1907    0.2440   53.5559 N.am    1  ZINC000546142192   -0.7400
     17 C17        -7.3686    1.4434   53.7336 C.3     1  ZINC000546142192    0.2300
     18 C18        -7.7324    2.4618   52.6840 C.2     1  ZINC000546142192    0.1800
     19 N19        -8.9286    2.6646   52.2035 N.2     1  ZINC000546142192   -0.4700
     20 C20        -8.8780    3.6455   51.2901 C.2     1  ZINC000546142192   -0.0300
     21 C21        -7.6019    4.0666   51.2013 C.2     1  ZINC000546142192   -0.0400
     22 N22        -6.8757    3.3197   52.0893 N.pl3   1  ZINC000546142192   -0.4500
     23 C23        -5.4363    3.4253   52.3411 C.3     1  ZINC000546142192    0.1100
     24 C24        -4.7019    2.3260   51.5710 C.3     1  ZINC000546142192   -0.0900
     25 C25        -3.2149    2.4981   51.7454 C.ar    1  ZINC000546142192   -0.0900
     26 C26        -2.7240    3.2298   52.8106 C.ar    1  ZINC000546142192   -0.1100
     27 C27        -1.3600    3.3875   52.9705 C.ar    1  ZINC000546142192   -0.1200
     28 C28        -0.4870    2.8133   52.0655 C.ar    1  ZINC000546142192   -0.1200
     29 C29        -0.9779    2.0810   51.0009 C.ar    1  ZINC000546142192   -0.1200
     30 C30        -2.3418    1.9196   50.8433 C.ar    1  ZINC000546142192   -0.1100
     31 C31       -12.3290   -1.1383   54.7293 C.ar    1  ZINC000546142192   -0.1500
     32 C32       -13.3678   -1.4036   55.5999 C.ar    1  ZINC000546142192   -0.0900
     33 H33       -16.4580    2.1342   59.5399 H       1  ZINC000546142192    0.0600
     34 H34       -15.8308    3.0484   58.1475 H       1  ZINC000546142192    0.1000
     35 H35       -17.0376    1.7641   57.8982 H       1  ZINC000546142192    0.0600
     36 H36       -15.3762   -2.3676   60.2848 H       1  ZINC000546142192    0.0600
     37 H37       -13.6111   -2.5322   60.4436 H       1  ZINC000546142192    0.0800
     38 H38       -14.4307   -1.0852   61.0781 H       1  ZINC000546142192    0.0700
     39 H39       -14.1126   -3.1701   58.2460 H       1  ZINC000546142192    0.0800
     40 H40       -15.1841   -2.1332   57.2739 H       1  ZINC000546142192    0.0800
     41 H41       -11.5957   -2.5155   58.2481 H       1  ZINC000546142192    0.1300
     42 H42        -9.7376   -2.0549   56.7013 H       1  ZINC000546142192    0.1400
     43 H43        -9.7778   -1.7232   53.5112 H       1  ZINC000546142192    0.4100
     44 H44        -8.0041   -0.3684   52.8272 H       1  ZINC000546142192    0.4000
     45 H45        -7.5470    1.8627   54.7239 H       1  ZINC000546142192    0.0800
     46 H46        -6.3156    1.1801   53.6348 H       1  ZINC000546142192    0.1000
     47 H47        -9.7140    4.0303   50.7249 H       1  ZINC000546142192    0.1700
     48 H48        -7.2247    4.8466   50.5566 H       1  ZINC000546142192    0.1800
     49 H49        -5.0802    4.4009   52.0101 H       1  ZINC000546142192    0.1000
     50 H50        -5.2449    3.3115   53.4080 H       1  ZINC000546142192    0.0900
     51 H51        -5.0023    1.3509   51.9545 H       1  ZINC000546142192    0.0800
     52 H52        -4.9538    2.3935   50.5126 H       1  ZINC000546142192    0.0800
     53 H53        -3.4061    3.6783   53.5176 H       1  ZINC000546142192    0.1200
     54 H54        -0.9765    3.9597   53.8024 H       1  ZINC000546142192    0.1200
     55 H55         0.5786    2.9373   52.1901 H       1  ZINC000546142192    0.1200
     56 H56        -0.2959    1.6327   50.2936 H       1  ZINC000546142192    0.1200
     57 H57        -2.7254    1.3474   50.0115 H       1  ZINC000546142192    0.1200
     58 H58       -12.5361   -0.7518   53.7423 H       1  ZINC000546142192    0.1300
     59 H59       -14.3876   -1.2209   55.2945 H       1  ZINC000546142192    0.1300
@<TRIPOS>BOND
     1     1     2    1
     2     1    33    1
     3     1    34    1
     4     1    35    1
     5     2     3    1
     6     3     4    2
     7     3     5    1
     8     5     6    1
     9     5     7    1
    10     5     8    1
    11     7    36    1
    12     7    37    1
    13     7    38    1
    14     8     9    1
    15     8    39    1
    16     8    40    1
    17     9    32   ar
    18     9    10   ar
    19    10    11   ar
    20    10    41    1
    21    11    12   ar
    22    11    42    1
    23    12    13    1
    24    12    31   ar
    25    13    14   am
    26    13    43    1
    27    14    15    2
    28    14    16   am
    29    16    17    1
    30    16    44    1
    31    17    18    1
    32    17    45    1
    33    17    46    1
    34    18    22    1
    35    18    19    2
    36    19    20    1
    37    20    21    2
    38    20    47    1
    39    21    22    1
    40    21    48    1
    41    22    23    1
    42    23    24    1
    43    23    49    1
    44    23    50    1
    45    24    25    1
    46    24    51    1
    47    24    52    1
    48    25    30   ar
    49    25    26   ar
    50    26    27   ar
    51    26    53    1
    52    27    28   ar
    53    27    54    1
    54    28    29   ar
    55    28    55    1
    56    29    30   ar
    57    29    56    1
    58    30    57    1
    59    31    32   ar
    60    31    58    1
    61    32    59    1
@<TRIPOS>SUBSTRUCTURE
     1 ZINC000546142192        1 TEMP              0 ****  ****    0 ROOT


##########                                Name:    ZINC001105793963
##########                DOCK_Rotatable_Bonds:                   9
##########                         Heavy_Atoms:                  24
##########                    Molecular_Weight:             337.422
##########                DOCK_Rotatable_Bonds:                   9
##########                       Formal_Charge:          -0.0100003
##########                     HBond_Acceptors:                   8
##########                        HBond_Donors:                   2
##########                         Heavy_Atoms:                  24
##########                          Grid_Score:          -32.290157
##########                     Grid_vdw_energy:          -31.828154
##########                      Grid_es_energy:           -0.462005
##########           Internal_energy_repulsive:           17.281599

@<TRIPOS>MOLECULE
ZINC001105793963
 51 52 1 0 0
SMALL
USER_CHARGES


@<TRIPOS>ATOM
      1 C1         -8.7402   -0.5342   66.1247 C.3     1  ZINC001105793963   -0.1500
      2 C2         -8.5925    0.8166   65.4215 C.3     1  ZINC001105793963   -0.0300
      3 C3         -7.7986    0.6384   64.1531 C.2     1  ZINC001105793963    0.1800
      4 N4         -8.2791    0.5615   62.9355 N.2     1  ZINC001105793963   -0.4800
      5 C5         -7.2104    0.4059   62.1337 C.2     1  ZINC001105793963    0.1700
      6 C6         -7.2336    0.2685   60.6332 C.3     1  ZINC001105793963    0.1500
      7 N7         -8.6225    0.1276   60.1757 N.3     1  ZINC001105793963   -0.6900
      8 C8         -8.6895   -0.6411   58.9257 C.3     1  ZINC001105793963    0.0700
      9 C9        -10.1396   -0.7020   58.4416 C.3     1  ZINC001105793963   -0.1000
     10 H10       -10.4896    0.2938   58.1695 H       1  ZINC001105793963    0.1000
     11 C11       -11.0453   -1.3093   59.5345 C.3     1  ZINC001105793963    0.1100
     12 N12       -12.0285   -2.1313   58.7912 N.am    1  ZINC001105793963   -0.6200
     13 C13       -13.3461   -2.2691   59.0387 C.2     1  ZINC001105793963    0.5300
     14 O14       -13.8542   -1.6756   59.9663 O.2     1  ZINC001105793963   -0.5300
     15 C15       -14.1880   -3.1608   58.1628 C.3     1  ZINC001105793963    0.1300
     16 H16       -13.6847   -4.1182   58.0284 H       1  ZINC001105793963    0.1100
     17 C17       -15.5485   -3.3883   58.8246 C.3     1  ZINC001105793963   -0.1600
     18 N18       -14.3803   -2.5229   56.8580 N.am    1  ZINC001105793963   -0.7200
     19 C19       -14.8571   -1.2643   56.7869 C.2     1  ZINC001105793963    0.5200
     20 C20       -15.0532   -0.6074   55.4449 C.3     1  ZINC001105793963   -0.1700
     21 O21       -15.1285   -0.6604   57.8030 O.2     1  ZINC001105793963   -0.5500
     22 C22       -11.2347   -2.7673   57.7140 C.3     1  ZINC001105793963    0.1000
     23 C23       -10.2640   -1.6611   57.2395 C.3     1  ZINC001105793963   -0.1000
     24 H24        -9.2920   -2.0894   56.9947 H       1  ZINC001105793963    0.0900
     25 C25       -10.8428   -0.9300   56.0265 C.3     1  ZINC001105793963   -0.1500
     26 N26        -6.1542    0.3963   62.8906 N.2     1  ZINC001105793963   -0.3700
     27 O27        -6.4700    0.5343   64.0537 O.3     1  ZINC001105793963    0.0800
     28 H28        -9.2585   -1.2317   65.4667 H       1  ZINC001105793963    0.0600
     29 H29        -7.7530   -0.9279   66.3663 H       1  ZINC001105793963    0.0600
     30 H30        -9.3144   -0.4054   67.0423 H       1  ZINC001105793963    0.0800
     31 H31        -9.5799    1.2102   65.1800 H       1  ZINC001105793963    0.1100
     32 H32        -8.0743    1.5140   66.0796 H       1  ZINC001105793963    0.1000
     33 H33        -6.7900    1.1552   60.1803 H       1  ZINC001105793963    0.1000
     34 H34        -6.6633   -0.6131   60.3402 H       1  ZINC001105793963    0.0700
     35 H35        -9.1976   -0.2930   60.8901 H       1  ZINC001105793963    0.3500
     36 H36        -8.0735   -0.1571   58.1680 H       1  ZINC001105793963    0.0800
     37 H37        -8.3222   -1.6524   59.1009 H       1  ZINC001105793963    0.0400
     38 H38       -10.4601   -1.9343   60.2091 H       1  ZINC001105793963    0.0700
     39 H39       -11.5522   -0.5202   60.0899 H       1  ZINC001105793963    0.0900
     40 H40       -16.1576   -4.0332   58.1911 H       1  ZINC001105793963    0.0800
     41 H41       -15.4055   -3.8628   59.7954 H       1  ZINC001105793963    0.0800
     42 H42       -16.0519   -2.4308   58.9590 H       1  ZINC001105793963    0.0600
     43 H43       -14.1643   -3.0063   56.0453 H       1  ZINC001105793963    0.4100
     44 H44       -14.7577   -1.2986   54.6554 H       1  ZINC001105793963    0.0800
     45 H45       -16.1028   -0.3412   55.3205 H       1  ZINC001105793963    0.1000
     46 H46       -14.4407    0.2924   55.3878 H       1  ZINC001105793963    0.1000
     47 H47       -10.6790   -3.6200   58.1043 H       1  ZINC001105793963    0.0800
     48 H48       -11.8844   -3.0781   56.8960 H       1  ZINC001105793963    0.0900
     49 H49       -11.8077   -0.4967   56.2899 H       1  ZINC001105793963    0.0600
     50 H50       -10.1601   -0.1376   55.7201 H       1  ZINC001105793963    0.0600
     51 H51       -10.9731   -1.6351   55.2055 H       1  ZINC001105793963    0.0600
@<TRIPOS>BOND
     1     1     2    1
     2     1    28    1
     3     1    29    1
     4     1    30    1
     5     2     3    1
     6     2    31    1
     7     2    32    1
     8     3    27    1
     9     3     4    2
    10     4     5    1
    11     5     6    1
    12     5    26    2
    13     6     7    1
    14     6    33    1
    15     6    34    1
    16     7     8    1
    17     7    35    1
    18     8     9    1
    19     8    36    1
    20     8    37    1
    21     9    10    1
    22     9    23    1
    23     9    11    1
    24    11    12    1
    25    11    38    1
    26    11    39    1
    27    12    13   am
    28    12    22    1
    29    13    14    2
    30    13    15    1
    31    15    16    1
    32    15    17    1
    33    15    18    1
    34    17    40    1
    35    17    41    1
    36    17    42    1
    37    18    19   am
    38    18    43    1
    39    19    20    1
    40    19    21    2
    41    20    44    1
    42    20    45    1
    43    20    46    1
    44    22    23    1
    45    22    47    1
    46    22    48    1
    47    23    24    1
    48    23    25    1
    49    25    49    1
    50    25    50    1
    51    25    51    1
    52    26    27    1
@<TRIPOS>SUBSTRUCTURE
     1 ZINC001105793963        1 TEMP              0 ****  ****    0 ROOT


##########                                Name:    ZINC000744839011
##########                DOCK_Rotatable_Bonds:                  10
##########                         Heavy_Atoms:                  24
##########                    Molecular_Weight:              378.83
##########                DOCK_Rotatable_Bonds:                  10
##########                       Formal_Charge:           0.0300002
##########                     HBond_Acceptors:                   9
##########                        HBond_Donors:                   0
##########                         Heavy_Atoms:                  24
##########                          Grid_Score:          -32.210182
##########                     Grid_vdw_energy:          -28.509428
##########                      Grid_es_energy:           -3.700752
##########           Internal_energy_repulsive:           20.091328

@<TRIPOS>MOLECULE
ZINC000744839011
 43 43 1 0 0
SMALL
USER_CHARGES


@<TRIPOS>ATOM
      1 C1         -5.4534    2.3472   52.1962 C.3     1  ZINC000744839011    0.0400
      2 O2         -5.7927    1.8815   53.5291 O.3     1  ZINC000744839011   -0.3600
      3 C3         -5.6182    2.7508   54.5437 C.2     1  ZINC000744839011    0.5100
      4 O4         -5.0009    3.7814   54.3613 O.2     1  ZINC000744839011   -0.5000
      5 C5         -6.1761    2.4514   55.8755 C.ar    1  ZINC000744839011   -0.1600
      6 C6         -5.4715    2.8113   57.0275 C.ar    1  ZINC000744839011   -0.0100
      7 C7         -5.9959    2.5304   58.2696 C.ar    1  ZINC000744839011   -0.2100
      8 C8         -7.2242    1.8900   58.3790 C.ar    1  ZINC000744839011    0.1800
      9 O9         -7.7373    1.6151   59.6052 O.3     1  ZINC000744839011   -0.2900
     10 C10        -7.3901    0.3566   60.1863 C.3     1  ZINC000744839011    0.0500
     11 C11        -7.1812    0.5307   61.6920 C.3     1  ZINC000744839011    0.0600
     12 O12        -8.4585    0.4213   62.3738 O.3     1  ZINC000744839011   -0.3400
     13 C13        -8.5150    0.8696   63.6377 C.2     1  ZINC000744839011    0.5000
     14 O14        -9.5121    1.4217   64.0387 O.2     1  ZINC000744839011   -0.4900
     15 C15        -7.3350    0.6844   64.5565 C.3     1  ZINC000744839011   -0.6400
     16 S16        -7.9225    0.4640   66.2584 S.o2    1  ZINC000744839011    2.4400
     17 O17        -9.3133    0.1746   66.2235 O.2     1  ZINC000744839011   -0.9100
     18 O18        -7.0444   -0.4301   66.9284 O.2     1  ZINC000744839011   -0.9100
     19 C19        -7.6950    2.1249   66.9515 C.3     1  ZINC000744839011   -0.5700
     20 C20        -6.1999    2.4246   67.0774 C.3     1  ZINC000744839011   -0.1500
     21 C21        -8.3460    3.1565   66.0279 C.3     1  ZINC000744839011   -0.1500
     22 C22        -7.9297    1.5302   57.2351 C.ar    1  ZINC000744839011   -0.0800
     23 Cl23       -9.4641    0.7307   57.3784 Cl      1  ZINC000744839011   -0.0400
     24 C24        -7.4143    1.8119   55.9891 C.ar    1  ZINC000744839011   -0.0100
     25 H25        -6.0653    3.2143   51.9475 H       1  ZINC000744839011    0.0700
     26 H26        -4.3999    2.6252   52.1657 H       1  ZINC000744839011    0.0700
     27 H27        -5.6404    1.5517   51.4749 H       1  ZINC000744839011    0.1100
     28 H28        -4.5165    3.3087   56.9438 H       1  ZINC000744839011    0.1500
     29 H29        -5.4515    2.8081   59.1601 H       1  ZINC000744839011    0.1500
     30 H30        -8.1939   -0.3585   60.0113 H       1  ZINC000744839011    0.0900
     31 H31        -6.4704   -0.0120   59.7322 H       1  ZINC000744839011    0.1000
     32 H32        -6.5069   -0.2440   62.0572 H       1  ZINC000744839011    0.1100
     33 H33        -6.7477    1.5114   61.8878 H       1  ZINC000744839011    0.0900
     34 H34        -6.7706   -0.1963   64.2500 H       1  ZINC000744839011    0.1700
     35 H35        -6.6927    1.5635   64.5048 H       1  ZINC000744839011    0.1700
     36 H36        -8.1596    2.1744   67.9364 H       1  ZINC000744839011    0.1400
     37 H37        -6.0632    3.4225   67.4938 H       1  ZINC000744839011    0.0900
     38 H38        -5.7361    1.6896   67.7353 H       1  ZINC000744839011    0.0700
     39 H39        -5.7353    2.3750   66.0925 H       1  ZINC000744839011    0.0800
     40 H40        -9.4111    2.9430   65.9383 H       1  ZINC000744839011    0.0800
     41 H41        -8.2092    4.1545   66.4444 H       1  ZINC000744839011    0.0900
     42 H42        -7.8814    3.1070   65.0433 H       1  ZINC000744839011    0.0800
     43 H43        -7.9622    1.5323   55.1014 H       1  ZINC000744839011    0.1600
@<TRIPOS>BOND
     1     1     2    1
     2     1    25    1
     3     1    26    1
     4     1    27    1
     5     2     3    1
     6     3     4    2
     7     3     5    1
     8     5    24   ar
     9     5     6   ar
    10     6     7   ar
    11     6    28    1
    12     7     8   ar
    13     7    29    1
    14     8     9    1
    15     8    22   ar
    16     9    10    1
    17    10    11    1
    18    10    30    1
    19    10    31    1
    20    11    12    1
    21    11    32    1
    22    11    33    1
    23    12    13    1
    24    13    14    2
    25    13    15    1
    26    15    16    1
    27    15    34    1
    28    15    35    1
    29    16    17    2
    30    16    18    2
    31    16    19    1
    32    19    20    1
    33    19    21    1
    34    19    36    1
    35    20    37    1
    36    20    38    1
    37    20    39    1
    38    21    40    1
    39    21    41    1
    40    21    42    1
    41    22    23    1
    42    22    24   ar
    43    24    43    1
@<TRIPOS>SUBSTRUCTURE
     1 ZINC000744839011        1 TEMP              0 ****  ****    0 ROOT


##########                                Name:    ZINC000058174787
##########                DOCK_Rotatable_Bonds:                   9
##########                         Heavy_Atoms:                  27
##########                    Molecular_Weight:             413.882
##########                DOCK_Rotatable_Bonds:                   9
##########                       Formal_Charge:           0.0200002
##########                     HBond_Acceptors:                  10
##########                        HBond_Donors:                   1
##########                         Heavy_Atoms:                  27
##########                          Grid_Score:          -32.178055
##########                     Grid_vdw_energy:          -32.808655
##########                      Grid_es_energy:            0.630601
##########           Internal_energy_repulsive:            5.053036

@<TRIPOS>MOLECULE
ZINC000058174787
 47 48 1 0 0
SMALL
USER_CHARGES


@<TRIPOS>ATOM
      1 C1         -5.4584    1.7843   65.5033 C.3     1  ZINC000058174787   -0.0700
      2 C2         -6.4385    1.3898   64.4286 C.2     1  ZINC000058174787    0.2100
      3 N3         -6.3371    1.6842   63.1614 N.2     1  ZINC000058174787   -0.4200
      4 C4         -7.3866    1.1707   62.5026 C.2     1  ZINC000058174787   -0.5600
      5 S5         -7.6897    1.3058   60.7721 S.o2    1  ZINC000058174787    2.7400
      6 O6         -6.7778    0.4218   60.1348 O.2     1  ZINC000058174787   -0.9500
      7 O7         -9.0983    1.2234   60.6039 O.2     1  ZINC000058174787   -0.9600
      8 N8         -7.2531    2.8368   60.3160 N.am    1  ZINC000058174787   -1.1100
      9 C9         -7.3921    3.2523   58.9181 C.3     1  ZINC000058174787    0.1300
     10 C10        -6.0926    2.9564   58.1665 C.3     1  ZINC000058174787   -0.1200
     11 C11        -6.0784    3.7205   56.8677 C.2     1  ZINC000058174787    0.4700
     12 O12        -6.0076    4.9266   56.8770 O.2     1  ZINC000058174787   -0.5000
     13 O13        -6.1444    3.0611   55.7003 O.3     1  ZINC000058174787   -0.3300
     14 C14        -7.2002    3.4498   54.7825 C.3     1  ZINC000058174787    0.0400
     15 H15        -7.8894    4.1268   55.2872 H       1  ZINC000058174787    0.1200
     16 C16        -7.9572    2.2038   54.3187 C.3     1  ZINC000058174787   -0.1700
     17 C17        -6.5974    4.1447   53.5888 C.2     1  ZINC000058174787    0.4000
     18 O18        -6.9858    5.2483   53.2696 O.2     1  ZINC000058174787   -0.4200
     19 C19        -5.5379    3.4845   52.8110 C.ar    1  ZINC000058174787   -0.1600
     20 C20        -4.1934    3.6921   53.1373 C.ar    1  ZINC000058174787   -0.0600
     21 C21        -3.2060    3.0699   52.4044 C.ar    1  ZINC000058174787   -0.1200
     22 C22        -3.5421    2.2404   51.3466 C.ar    1  ZINC000058174787    0.0000
     23 Cl23       -2.2917    1.4603   50.4294 Cl      1  ZINC000058174787   -0.0500
     24 C24        -4.8717    2.0302   51.0177 C.ar    1  ZINC000058174787   -0.1200
     25 C25        -5.8700    2.6416   51.7450 C.ar    1  ZINC000058174787   -0.0400
     26 C26        -8.1680    0.5339   63.3956 C.2     1  ZINC000058174787    0.0700
     27 N27        -7.5644    0.6680   64.6167 N.pl3   1  ZINC000058174787   -0.4500
     28 C28        -8.0527    0.1353   65.8911 C.3     1  ZINC000058174787    0.0600
     29 H29        -4.6940    1.0132   65.5987 H       1  ZINC000058174787    0.0900
     30 H30        -4.9882    2.7308   65.2365 H       1  ZINC000058174787    0.1000
     31 H31        -5.9840    1.8943   66.4518 H       1  ZINC000058174787    0.0800
     32 H32        -6.9052    3.4583   60.9744 H       1  ZINC000058174787    0.4200
     33 H33        -8.2123    2.7032   58.4556 H       1  ZINC000058174787    0.0900
     34 H34        -7.6009    4.3213   58.8758 H       1  ZINC000058174787    0.0900
     35 H35        -5.2424    3.2612   58.7767 H       1  ZINC000058174787    0.1200
     36 H36        -6.0273    1.8881   57.9602 H       1  ZINC000058174787    0.1200
     37 H37        -7.2679    1.5268   53.8139 H       1  ZINC000058174787    0.0800
     38 H38        -8.3932    1.7012   55.1821 H       1  ZINC000058174787    0.0800
     39 H39        -8.7498    2.4955   53.6296 H       1  ZINC000058174787    0.0800
     40 H40        -3.9299    4.3387   53.9612 H       1  ZINC000058174787    0.1400
     41 H41        -2.1676    3.2294   52.6550 H       1  ZINC000058174787    0.1400
     42 H42        -5.1264    1.3824   50.1919 H       1  ZINC000058174787    0.1400
     43 H43        -6.9057    2.4766   51.4878 H       1  ZINC000058174787    0.1500
     44 H44        -9.0914    0.0138   63.1875 H       1  ZINC000058174787    0.1900
     45 H45        -7.6512   -0.8665   66.0438 H       1  ZINC000058174787    0.0900
     46 H46        -7.7285    0.7846   66.7043 H       1  ZINC000058174787    0.1000
     47 H47        -9.1416    0.0915   65.8731 H       1  ZINC000058174787    0.0900
@<TRIPOS>BOND
     1     1     2    1
     2     1    29    1
     3     1    30    1
     4     1    31    1
     5     2    27    1
     6     2     3    2
     7     3     4    1
     8     4     5    1
     9     4    26    2
    10     5     6    2
    11     5     7    2
    12     5     8   am
    13     8     9    1
    14     8    32    1
    15     9    10    1
    16     9    33    1
    17     9    34    1
    18    10    11    1
    19    10    35    1
    20    10    36    1
    21    11    12    2
    22    11    13    1
    23    13    14    1
    24    14    15    1
    25    14    16    1
    26    14    17    1
    27    16    37    1
    28    16    38    1
    29    16    39    1
    30    17    18    2
    31    17    19    1
    32    19    25   ar
    33    19    20   ar
    34    20    21   ar
    35    20    40    1
    36    21    22   ar
    37    21    41    1
    38    22    23    1
    39    22    24   ar
    40    24    25   ar
    41    24    42    1
    42    25    43    1
    43    26    27    1
    44    26    44    1
    45    27    28    1
    46    28    45    1
    47    28    46    1
    48    28    47    1
@<TRIPOS>SUBSTRUCTURE
     1 ZINC000058174787        1 TEMP              0 ****  ****    0 ROOT


##########                                Name:    ZINC000912668252
##########                DOCK_Rotatable_Bonds:                  10
##########                         Heavy_Atoms:                  30
##########                    Molecular_Weight:             411.433
##########                DOCK_Rotatable_Bonds:                  10
##########                       Formal_Charge:           0.0199993
##########                     HBond_Acceptors:                   8
##########                        HBond_Donors:                   2
##########                         Heavy_Atoms:                  30
##########                          Grid_Score:          -32.085449
##########                     Grid_vdw_energy:          -32.635990
##########                      Grid_es_energy:            0.550542
##########           Internal_energy_repulsive:           11.721825

@<TRIPOS>MOLECULE
ZINC000912668252
 52 54 1 0 0
SMALL
USER_CHARGES


@<TRIPOS>ATOM
      1 C1        -14.2071   -3.0007   57.4636 C.3     1  ZINC000912668252   -0.1700
      2 C2        -12.7377   -2.5879   57.5698 C.3     1  ZINC000912668252    0.1100
      3 N3        -12.6494   -1.2356   58.1263 N.am    1  ZINC000912668252   -0.6100
      4 C4        -12.9736   -1.0008   59.5355 C.3     1  ZINC000912668252    0.1000
      5 C5        -11.6889   -0.7033   60.3116 C.3     1  ZINC000912668252   -0.1800
      6 C6        -12.2698   -0.2075   57.3417 C.2     1  ZINC000912668252    0.5600
      7 O7        -12.1967    0.9145   57.8035 O.2     1  ZINC000912668252   -0.5300
      8 C8        -11.9427   -0.4445   55.9194 C.ar    1  ZINC000912668252   -0.1100
      9 C9        -12.9618   -0.6910   54.9981 C.ar    1  ZINC000912668252   -0.1100
     10 C10       -12.6537   -0.9114   53.6709 C.ar    1  ZINC000912668252   -0.1000
     11 C11       -11.3376   -0.8891   53.2492 C.ar    1  ZINC000912668252   -0.1200
     12 C12       -10.3156   -0.6446   54.1588 C.ar    1  ZINC000912668252    0.1400
     13 N13        -8.9846   -0.6227   53.7266 N.am    1  ZINC000912668252   -0.6700
     14 C14        -8.4255    0.5360   53.3248 C.2     1  ZINC000912668252    0.5200
     15 O15        -9.0759    1.5597   53.3378 O.2     1  ZINC000912668252   -0.4900
     16 C16        -6.9924    0.5596   52.8594 C.3     1  ZINC000912668252    0.0500
     17 O17        -6.6903    1.8600   52.2883 O.3     1  ZINC000912668252   -0.3300
     18 C18        -5.6398    1.9295   51.4459 C.2     1  ZINC000912668252    0.5400
     19 O19        -5.7626    1.5725   50.2902 O.2     1  ZINC000912668252   -0.4800
     20 C20        -4.3468    2.4365   51.9244 C.2     1  ZINC000912668252    0.0400
     21 C21        -4.1630    3.2118   53.0261 C.2     1  ZINC000912668252   -0.0900
     22 C22        -2.7779    3.4814   53.1375 C.ar    1  ZINC000912668252   -0.1000
     23 C23        -2.0113    4.2128   54.0541 C.ar    1  ZINC000912668252   -0.0900
     24 C24        -0.6566    4.2942   53.8945 C.ar    1  ZINC000912668252    0.0700
     25 F25         0.0807    5.0001   54.7796 F       1  ZINC000912668252   -0.1400
     26 C26        -0.0304    3.6562   52.8290 C.ar    1  ZINC000912668252   -0.1100
     27 C27        -0.7637    2.9322   51.9156 C.ar    1  ZINC000912668252   -0.1000
     28 C28        -2.1450    2.8351   52.0575 C.ar    1  ZINC000912668252    0.1100
     29 N29        -3.1226    2.1967   51.3302 N.pl3   1  ZINC000912668252   -0.5600
     30 C30       -10.6149   -0.4168   55.4928 C.ar    1  ZINC000912668252   -0.0700
     31 H31       -14.2728   -4.0069   57.0495 H       1  ZINC000912668252    0.0700
     32 H32       -14.6614   -2.9851   58.4543 H       1  ZINC000912668252    0.0600
     33 H33       -14.7339   -2.3043   56.8113 H       1  ZINC000912668252    0.0600
     34 H34       -12.2109   -3.2844   58.2221 H       1  ZINC000912668252    0.0800
     35 H35       -12.2834   -2.6036   56.5791 H       1  ZINC000912668252    0.0900
     36 H36       -13.6515   -0.1511   59.6157 H       1  ZINC000912668252    0.0900
     37 H37       -13.4519   -1.8878   59.9510 H       1  ZINC000912668252    0.0800
     38 H38       -11.1904   -1.6398   60.5616 H       1  ZINC000912668252    0.0600
     39 H39       -11.0272   -0.0918   59.6982 H       1  ZINC000912668252    0.0700
     40 H40       -11.9341   -0.1664   61.2280 H       1  ZINC000912668252    0.0700
     41 H41       -13.9913   -0.7095   55.3238 H       1  ZINC000912668252    0.1400
     42 H42       -13.4436   -1.1024   52.9596 H       1  ZINC000912668252    0.1400
     43 H43       -11.1027   -1.0627   52.2095 H       1  ZINC000912668252    0.1300
     44 H44        -8.4645   -1.4414   53.7163 H       1  ZINC000912668252    0.4200
     45 H45        -6.3322    0.3725   53.7064 H       1  ZINC000912668252    0.1100
     46 H46        -6.8427   -0.2124   52.1047 H       1  ZINC000912668252    0.1100
     47 H47        -4.9354    3.5601   53.6957 H       1  ZINC000912668252    0.1700
     48 H48        -2.4897    4.7112   54.8842 H       1  ZINC000912668252    0.1400
     49 H49         1.0412    3.7297   52.7167 H       1  ZINC000912668252    0.1400
     50 H50        -0.2684    2.4410   51.0912 H       1  ZINC000912668252    0.1400
     51 H51        -2.9768    1.6669   50.5309 H       1  ZINC000912668252    0.4300
     52 H52        -9.8220   -0.2265   56.2011 H       1  ZINC000912668252    0.1400
@<TRIPOS>BOND
     1     1     2    1
     2     1    31    1
     3     1    32    1
     4     1    33    1
     5     2     3    1
     6     2    34    1
     7     2    35    1
     8     3     4    1
     9     3     6   am
    10     4     5    1
    11     4    36    1
    12     4    37    1
    13     5    38    1
    14     5    39    1
    15     5    40    1
    16     6     7    2
    17     6     8    1
    18     8    30   ar
    19     8     9   ar
    20     9    10   ar
    21     9    41    1
    22    10    11   ar
    23    10    42    1
    24    11    12   ar
    25    11    43    1
    26    12    13    1
    27    12    30   ar
    28    13    14   am
    29    13    44    1
    30    14    15    2
    31    14    16    1
    32    16    17    1
    33    16    45    1
    34    16    46    1
    35    17    18    1
    36    18    19    2
    37    18    20    1
    38    20    29    1
    39    20    21    2
    40    21    22    1
    41    21    47    1
    42    22    28   ar
    43    22    23   ar
    44    23    24   ar
    45    23    48    1
    46    24    25    1
    47    24    26   ar
    48    26    27   ar
    49    26    49    1
    50    27    28   ar
    51    27    50    1
    52    28    29    1
    53    29    51    1
    54    30    52    1
@<TRIPOS>SUBSTRUCTURE
     1 ZINC000912668252        1 TEMP              0 ****  ****    0 ROOT


##########                                Name:    ZINC001289410668
##########                DOCK_Rotatable_Bonds:                  11
##########                         Heavy_Atoms:                  26
##########                    Molecular_Weight:             362.515
##########                DOCK_Rotatable_Bonds:                  11
##########                       Formal_Charge:          -0.0400008
##########                     HBond_Acceptors:                   6
##########                        HBond_Donors:                   1
##########                         Heavy_Atoms:                  26
##########                          Grid_Score:          -32.034073
##########                     Grid_vdw_energy:          -30.715712
##########                      Grid_es_energy:           -1.318360
##########           Internal_energy_repulsive:           18.081081

@<TRIPOS>MOLECULE
ZINC001289410668
 60 61 1 0 0
SMALL
USER_CHARGES


@<TRIPOS>ATOM
      1 C1         -8.5086    0.4452   64.0499 C.3     1  ZINC001289410668   -0.1500
      2 C2         -7.3005    0.7492   63.1616 C.3     1  ZINC001289410668   -0.1300
      3 C3         -7.5069    2.0946   62.4630 C.3     1  ZINC001289410668   -0.1200
      4 C4         -8.4280    1.9064   61.2558 C.3     1  ZINC001289410668   -0.1200
      5 C5         -7.5946    1.9112   59.9728 C.3     1  ZINC001289410668   -0.1100
      6 C6         -7.4474    0.4792   59.4547 C.3     1  ZINC001289410668   -0.1400
      7 C7         -8.6913    0.0880   58.6991 C.2     1  ZINC001289410668    0.5100
      8 O8         -9.0503    0.7413   57.7424 O.2     1  ZINC001289410668   -0.5300
      9 N9         -9.4048   -0.9877   59.0866 N.am    1  ZINC001289410668   -0.7200
     10 C10       -10.6150   -1.3669   58.3531 C.3     1  ZINC001289410668    0.1400
     11 H11       -10.9360   -0.5629   57.6908 H       1  ZINC001289410668    0.1100
     12 C12       -11.7502   -1.7712   59.3264 C.3     1  ZINC001289410668    0.0800
     13 N13       -12.6182   -2.6683   58.5419 N.am    1  ZINC001289410668   -0.6200
     14 C14       -13.9241   -2.9027   58.7786 C.2     1  ZINC001289410668    0.5100
     15 O15       -14.5432   -3.6622   58.0639 O.2     1  ZINC001289410668   -0.5100
     16 C16       -14.6152   -2.2211   59.9314 C.3     1  ZINC001289410668    0.0900
     17 N17       -15.2550   -0.9909   59.4588 N.pl3   1  ZINC001289410668   -0.4500
     18 C18       -15.9771   -0.8424   58.3055 C.2     1  ZINC001289410668   -0.0500
     19 C19       -16.3814    0.4415   58.2616 C.2     1  ZINC001289410668   -0.0200
     20 N20       -15.9189    1.0599   59.3582 N.2     1  ZINC001289410668   -0.4800
     21 C21       -15.2476    0.2069   60.0825 C.2     1  ZINC001289410668    0.2300
     22 C22       -14.5685    0.5105   61.3931 C.3     1  ZINC001289410668   -0.0100
     23 C23       -14.4613    2.0261   61.5730 C.3     1  ZINC001289410668   -0.1400
     24 C24       -15.3875   -0.0827   62.5412 C.3     1  ZINC001289410668   -0.1400
     25 C25       -11.8233   -3.2644   57.4581 C.3     1  ZINC001289410668    0.1100
     26 C26       -10.3966   -2.6843   57.5632 C.3     1  ZINC001289410668   -0.1100
     27 H27        -9.7449   -3.3612   58.1158 H       1  ZINC001289410668    0.0900
     28 C28        -9.8243   -2.3997   56.1731 C.3     1  ZINC001289410668   -0.1400
     29 H29        -8.3616   -0.5134   64.5476 H       1  ZINC001289410668    0.0500
     30 H30        -8.6161    1.2304   64.7981 H       1  ZINC001289410668    0.0500
     31 H31        -9.4087    0.4020   63.4367 H       1  ZINC001289410668    0.0500
     32 H32        -6.4003    0.7925   63.7748 H       1  ZINC001289410668    0.0600
     33 H33        -7.1930   -0.0361   62.4133 H       1  ZINC001289410668    0.0600
     34 H34        -7.9604    2.7999   63.1595 H       1  ZINC001289410668    0.0600
     35 H35        -6.5445    2.4820   62.1287 H       1  ZINC001289410668    0.0600
     36 H36        -8.9531    0.9554   61.3443 H       1  ZINC001289410668    0.0600
     37 H37        -9.1527    2.7198   61.2214 H       1  ZINC001289410668    0.0600
     38 H38        -8.0921    2.5211   59.2187 H       1  ZINC001289410668    0.0700
     39 H39        -6.6082    2.3252   60.1817 H       1  ZINC001289410668    0.0700
     40 H40        -6.5851    0.4199   58.7906 H       1  ZINC001289410668    0.1000
     41 H41        -7.3052   -0.1988   60.2963 H       1  ZINC001289410668    0.1000
     42 H42        -9.1171   -1.5109   59.8510 H       1  ZINC001289410668    0.4000
     43 H43       -11.3411   -2.2978   60.1887 H       1  ZINC001289410668    0.0800
     44 H44       -12.3064   -0.8905   59.6474 H       1  ZINC001289410668    0.0800
     45 H45       -15.3712   -2.8873   60.3471 H       1  ZINC001289410668    0.1200
     46 H46       -13.8829   -1.9772   60.7011 H       1  ZINC001289410668    0.1200
     47 H47       -16.1826   -1.6075   57.5715 H       1  ZINC001289410668    0.1700
     48 H48       -16.9743    0.8938   57.4802 H       1  ZINC001289410668    0.1700
     49 H49       -13.5701    0.0730   61.3950 H       1  ZINC001289410668    0.0700
     50 H50       -15.4596    2.4636   61.5711 H       1  ZINC001289410668    0.0700
     51 H51       -13.9702    2.2457   62.5209 H       1  ZINC001289410668    0.0600
     52 H52       -13.8779    2.4487   60.7550 H       1  ZINC001289410668    0.0500
     53 H53       -16.3858    0.3549   62.5394 H       1  ZINC001289410668    0.0700
     54 H54       -15.4638   -1.1625   62.4131 H       1  ZINC001289410668    0.0600
     55 H55       -14.8964    0.1368   63.4892 H       1  ZINC001289410668    0.0600
     56 H56       -11.7929   -4.3478   57.5733 H       1  ZINC001289410668    0.0800
     57 H57       -12.2584   -3.0042   56.4932 H       1  ZINC001289410668    0.0800
     58 H58       -10.4742   -1.6988   55.6492 H       1  ZINC001289410668    0.0600
     59 H59        -8.8284   -1.9676   56.2717 H       1  ZINC001289410668    0.0600
     60 H60        -9.7625   -3.3298   55.6082 H       1  ZINC001289410668    0.0700
@<TRIPOS>BOND
     1     1     2    1
     2     1    29    1
     3     1    30    1
     4     1    31    1
     5     2     3    1
     6     2    32    1
     7     2    33    1
     8     3     4    1
     9     3    34    1
    10     3    35    1
    11     4     5    1
    12     4    36    1
    13     4    37    1
    14     5     6    1
    15     5    38    1
    16     5    39    1
    17     6     7    1
    18     6    40    1
    19     6    41    1
    20     7     8    2
    21     7     9   am
    22     9    10    1
    23     9    42    1
    24    10    11    1
    25    10    26    1
    26    10    12    1
    27    12    13    1
    28    12    43    1
    29    12    44    1
    30    13    14   am
    31    13    25    1
    32    14    15    2
    33    14    16    1
    34    16    17    1
    35    16    45    1
    36    16    46    1
    37    17    21    1
    38    17    18    1
    39    18    19    2
    40    18    47    1
    41    19    20    1
    42    19    48    1
    43    20    21    2
    44    21    22    1
    45    22    23    1
    46    22    24    1
    47    22    49    1
    48    23    50    1
    49    23    51    1
    50    23    52    1
    51    24    53    1
    52    24    54    1
    53    24    55    1
    54    25    26    1
    55    25    56    1
    56    25    57    1
    57    26    27    1
    58    26    28    1
    59    28    58    1
    60    28    59    1
    61    28    60    1
@<TRIPOS>SUBSTRUCTURE
     1 ZINC001289410668        1 TEMP              0 ****  ****    0 ROOT


##########                                Name:    ZINC000410354665
##########                DOCK_Rotatable_Bonds:                   7
##########                         Heavy_Atoms:                  29
##########                    Molecular_Weight:             417.889
##########                DOCK_Rotatable_Bonds:                   7
##########                       Formal_Charge:        -3.72529e-08
##########                     HBond_Acceptors:                   7
##########                        HBond_Donors:                   1
##########                         Heavy_Atoms:                  29
##########                          Grid_Score:          -32.014267
##########                     Grid_vdw_energy:          -32.086304
##########                      Grid_es_energy:            0.072037
##########           Internal_energy_repulsive:           20.612862

@<TRIPOS>MOLECULE
ZINC000410354665
 53 56 1 0 0
SMALL
USER_CHARGES


@<TRIPOS>ATOM
      1 C1          5.7840    2.7431   57.5525 C.3     1  ZINC000410354665    0.0200
      2 O2          4.8209    2.3449   58.5302 O.3     1  ZINC000410354665   -0.3000
      3 C3          3.5120    2.3968   58.1644 C.ar    1  ZINC000410354665    0.0900
      4 C4          3.1363    3.1097   57.0429 C.ar    1  ZINC000410354665   -0.1100
      5 C5          1.7903    3.1605   56.6696 C.ar    1  ZINC000410354665   -0.1400
      6 C6          1.3833    3.9206   55.4715 C.2     1  ZINC000410354665    0.5700
      7 O7          2.1909    4.6213   54.8926 O.2     1  ZINC000410354665   -0.5300
      8 N8          0.1164    3.8380   55.0193 N.am    1  ZINC000410354665   -0.7200
      9 C9         -0.2871    4.5911   53.8292 C.3     1  ZINC000410354665    0.1700
     10 C10        -1.4442    3.8935   53.1617 C.ar    1  ZINC000410354665   -0.1000
     11 C11        -1.2175    3.0581   52.0841 C.ar    1  ZINC000410354665   -0.0900
     12 C12        -2.2774    2.4180   51.4675 C.ar    1  ZINC000410354665   -0.0300
     13 Cl13       -1.9889    1.3698   50.1140 Cl      1  ZINC000410354665   -0.0400
     14 C14        -3.5710    2.6126   51.9304 C.ar    1  ZINC000410354665    0.0700
     15 O15        -4.6051    1.9820   51.3089 O.3     1  ZINC000410354665   -0.2900
     16 C16        -5.8401    1.9079   52.0296 C.3     1  ZINC000410354665    0.0200
     17 C17        -6.1367    3.2935   52.6189 C.3     1  ZINC000410354665    0.0200
     18 O18        -5.0578    3.6506   53.4897 O.3     1  ZINC000410354665   -0.3000
     19 C19        -3.7976    3.4496   53.0162 C.ar    1  ZINC000410354665    0.0600
     20 C20        -2.7298    4.0857   53.6318 C.ar    1  ZINC000410354665   -0.0900
     21 C21         0.8313    2.4902   57.4323 C.ar    1  ZINC000410354665   -0.0800
     22 C22         1.2130    1.7809   58.5508 C.ar    1  ZINC000410354665   -0.1900
     23 C23         2.5502    1.7254   58.9184 C.ar    1  ZINC000410354665    0.1400
     24 O24         2.9212    1.0253   60.0212 O.3     1  ZINC000410354665   -0.2900
     25 C25         1.8878    0.3434   60.7347 C.3     1  ZINC000410354665    0.0700
     26 C26         2.4979   -0.6370   61.7671 C.3     1  ZINC000410354665   -0.1500
     27 C27         1.3567   -0.7975   62.8019 C.3     1  ZINC000410354665   -0.1200
     28 C28         0.7385    0.6122   62.9052 C.3     1  ZINC000410354665   -0.1200
     29 C29         1.0762    1.3375   61.5907 C.3     1  ZINC000410354665   -0.1200
     30 H30         5.6992    2.1006   56.6762 H       1  ZINC000410354665    0.0600
     31 H31         5.6016    3.7780   57.2633 H       1  ZINC000410354665    0.0600
     32 H32         6.7860    2.6543   57.9724 H       1  ZINC000410354665    0.1000
     33 H33         3.8807    3.6270   56.4559 H       1  ZINC000410354665    0.1500
     34 H34        -0.5283    3.2801   55.4817 H       1  ZINC000410354665    0.4000
     35 H35        -0.5886    5.5972   54.1207 H       1  ZINC000410354665    0.0800
     36 H36         0.5511    4.6499   53.1349 H       1  ZINC000410354665    0.0900
     37 H37        -0.2113    2.9054   51.7228 H       1  ZINC000410354665    0.1500
     38 H38        -6.6435    1.6165   51.3530 H       1  ZINC000410354665    0.1300
     39 H39        -5.7530    1.1774   52.8338 H       1  ZINC000410354665    0.0800
     40 H40        -6.2179    4.0252   51.8150 H       1  ZINC000410354665    0.0800
     41 H41        -7.0689    3.2611   53.1828 H       1  ZINC000410354665    0.1300
     42 H42        -2.9034    4.7351   54.4771 H       1  ZINC000410354665    0.1400
     43 H43        -0.2093    2.5280   57.1458 H       1  ZINC000410354665    0.1300
     44 H44         0.4703    1.2633   59.1398 H       1  ZINC000410354665    0.1400
     45 H45         1.2335   -0.1868   60.0427 H       1  ZINC000410354665    0.0800
     46 H46         2.7329   -1.5932   61.2997 H       1  ZINC000410354665    0.0700
     47 H47         3.3839   -0.2054   62.2328 H       1  ZINC000410354665    0.0800
     48 H48         0.6163   -1.5136   62.4454 H       1  ZINC000410354665    0.0700
     49 H49         1.7574   -1.1099   63.7663 H       1  ZINC000410354665    0.0700
     50 H50        -0.3425    0.5381   63.0237 H       1  ZINC000410354665    0.0700
     51 H51         1.1713    1.1487   63.7496 H       1  ZINC000410354665    0.0700
     52 H52         1.6728    2.2261   61.7973 H       1  ZINC000410354665    0.0800
     53 H53         0.1591    1.6155   61.0715 H       1  ZINC000410354665    0.0700
@<TRIPOS>BOND
     1     1     2    1
     2     1    30    1
     3     1    31    1
     4     1    32    1
     5     2     3    1
     6     3    23   ar
     7     3     4   ar
     8     4     5   ar
     9     4    33    1
    10     5     6    1
    11     5    21   ar
    12     6     7    2
    13     6     8   am
    14     8     9    1
    15     8    34    1
    16     9    10    1
    17     9    35    1
    18     9    36    1
    19    10    20   ar
    20    10    11   ar
    21    11    12   ar
    22    11    37    1
    23    12    13    1
    24    12    14   ar
    25    14    19   ar
    26    14    15    1
    27    15    16    1
    28    16    17    1
    29    16    38    1
    30    16    39    1
    31    17    18    1
    32    17    40    1
    33    17    41    1
    34    18    19    1
    35    19    20   ar
    36    20    42    1
    37    21    22   ar
    38    21    43    1
    39    22    23   ar
    40    22    44    1
    41    23    24    1
    42    24    25    1
    43    25    29    1
    44    25    26    1
    45    25    45    1
    46    26    27    1
    47    26    46    1
    48    26    47    1
    49    27    28    1
    50    27    48    1
    51    27    49    1
    52    28    29    1
    53    28    50    1
    54    28    51    1
    55    29    52    1
    56    29    53    1
@<TRIPOS>SUBSTRUCTURE
     1 ZINC000410354665        1 TEMP              0 ****  ****    0 ROOT


##########                                Name:    ZINC000482846390
##########                DOCK_Rotatable_Bonds:                   9
##########                         Heavy_Atoms:                  30
##########                    Molecular_Weight:             420.469
##########                DOCK_Rotatable_Bonds:                   9
##########                       Formal_Charge:          -0.0100011
##########                     HBond_Acceptors:                  11
##########                        HBond_Donors:                   2
##########                         Heavy_Atoms:                  30
##########                          Grid_Score:          -32.007137
##########                     Grid_vdw_energy:          -30.577477
##########                      Grid_es_energy:           -1.429662
##########           Internal_energy_repulsive:           21.492273

@<TRIPOS>MOLECULE
ZINC000482846390
 58 60 1 0 0
SMALL
USER_CHARGES


@<TRIPOS>ATOM
      1 C1         -6.2191    1.8297   65.7814 C.3     1  ZINC000482846390   -0.1000
      2 C2         -6.6860    1.4598   64.3971 C.2     1  ZINC000482846390    0.0900
      3 C3         -7.4886    2.2032   63.6006 C.2     1  ZINC000482846390   -0.2700
      4 C4         -7.6778    1.5019   62.4054 C.2     1  ZINC000482846390    0.0700
      5 C5         -8.5042    1.9620   61.2322 C.3     1  ZINC000482846390   -0.0500
      6 C6         -7.6966    1.7964   59.9433 C.3     1  ZINC000482846390    0.1500
      7 H7         -6.9322    1.0331   60.0890 H       1  ZINC000482846390    0.1000
      8 C8         -7.0283    3.1255   59.5859 C.3     1  ZINC000482846390   -0.1700
      9 N9         -8.5904    1.3911   58.8556 N.am    1  ZINC000482846390   -0.6800
     10 C10        -8.7758    0.0834   58.5876 C.2     1  ZINC000482846390    0.5100
     11 O11        -8.2036   -0.7584   59.2482 O.2     1  ZINC000482846390   -0.5200
     12 C12        -9.6862   -0.3300   57.4768 C.2     1  ZINC000482846390    0.5100
     13 O13        -9.2615   -0.4123   56.3429 O.2     1  ZINC000482846390   -0.5100
     14 N14       -10.9788   -0.6114   57.7343 N.am    1  ZINC000482846390   -0.5900
     15 C15       -11.8840   -1.0251   56.6528 C.3     1  ZINC000482846390    0.0500
     16 C16       -12.5194   -2.3683   57.0324 C.3     1  ZINC000482846390    0.1000
     17 N17       -13.0489   -2.2677   58.3996 N.am    1  ZINC000482846390   -0.6000
     18 C18       -14.3414   -2.5501   58.6572 C.2     1  ZINC000482846390    0.5200
     19 O19       -14.7672   -2.4634   59.7902 O.2     1  ZINC000482846390   -0.5000
     20 C20       -15.2502   -2.9700   57.5475 C.2     1  ZINC000482846390    0.5200
     21 O21       -15.2427   -4.1197   57.1593 O.2     1  ZINC000482846390   -0.5000
     22 N22       -16.0778   -2.0717   56.9778 N.am    1  ZINC000482846390   -0.6000
     23 C23       -16.1002   -0.6707   57.4273 C.3     1  ZINC000482846390    0.0700
     24 C24       -15.9671    0.2339   56.1970 C.3     1  ZINC000482846390    0.0500
     25 O25       -16.9522   -0.1384   55.2301 O.3     1  ZINC000482846390   -0.3700
     26 C26       -16.8094   -1.4710   54.7324 C.3     1  ZINC000482846390    0.0500
     27 C27       -16.9815   -2.4616   55.8839 C.3     1  ZINC000482846390    0.0700
     28 C28       -12.1438   -1.8541   59.4811 C.3     1  ZINC000482846390    0.0900
     29 C29       -11.5071   -0.5162   59.1024 C.3     1  ZINC000482846390    0.0900
     30 N30        -7.0128    0.3777   62.4815 N.2     1  ZINC000482846390   -0.2800
     31 N31        -6.3741    0.3305   63.7273 N.pl3   1  ZINC000482846390   -0.4700
     32 H32        -5.2833    2.3843   65.7130 H       1  ZINC000482846390    0.0800
     33 H33        -6.9740    2.4489   66.2661 H       1  ZINC000482846390    0.0900
     34 H34        -6.0625    0.9233   66.3662 H       1  ZINC000482846390    0.0700
     35 H35        -7.9089    3.1676   63.8448 H       1  ZINC000482846390    0.1500
     36 H36        -9.4131    1.3633   61.1709 H       1  ZINC000482846390    0.0900
     37 H37        -8.7684    3.0113   61.3632 H       1  ZINC000482846390    0.1100
     38 H38        -6.3633    3.4270   60.3951 H       1  ZINC000482846390    0.0700
     39 H39        -6.4530    3.0075   58.6676 H       1  ZINC000482846390    0.0700
     40 H40        -7.7926    3.8889   59.4401 H       1  ZINC000482846390    0.0600
     41 H41        -9.0487    2.0640   58.3283 H       1  ZINC000482846390    0.4200
     42 H42       -12.6643   -0.2753   56.5220 H       1  ZINC000482846390    0.0800
     43 H43       -11.3205   -1.1357   55.7263 H       1  ZINC000482846390    0.1600
     44 H44       -13.3310   -2.5973   56.3417 H       1  ZINC000482846390    0.1100
     45 H45       -11.7659   -3.1547   56.9889 H       1  ZINC000482846390    0.0800
     46 H46       -17.0419   -0.4632   57.9354 H       1  ZINC000482846390    0.0900
     47 H47       -15.2679   -0.4901   58.1076 H       1  ZINC000482846390    0.0900
     48 H48       -16.1194    1.2725   56.4905 H       1  ZINC000482846390    0.1100
     49 H49       -14.9724    0.1188   55.7662 H       1  ZINC000482846390    0.0600
     50 H50       -17.5676   -1.6588   53.9723 H       1  ZINC000482846390    0.1100
     51 H51       -15.8178   -1.5923   54.2963 H       1  ZINC000482846390    0.0600
     52 H52       -16.7353   -3.4672   55.5430 H       1  ZINC000482846390    0.1100
     53 H53       -18.0117   -2.4359   56.2393 H       1  ZINC000482846390    0.0800
     54 H54       -12.7074   -1.7434   60.4075 H       1  ZINC000482846390    0.0900
     55 H55       -11.3636   -2.6039   59.6119 H       1  ZINC000482846390    0.0900
     56 H56       -10.6957   -0.2885   59.7938 H       1  ZINC000482846390    0.1100
     57 H57       -12.2590    0.2718   59.1446 H       1  ZINC000482846390    0.0800
     58 H58        -5.8118   -0.3895   64.0535 H       1  ZINC000482846390    0.4400
@<TRIPOS>BOND
     1     1     2    1
     2     1    32    1
     3     1    33    1
     4     1    34    1
     5     2    31    1
     6     2     3    2
     7     3     4    1
     8     3    35    1
     9     4     5    1
    10     4    30    2
    11     5     6    1
    12     5    36    1
    13     5    37    1
    14     6     7    1
    15     6     8    1
    16     6     9    1
    17     8    38    1
    18     8    39    1
    19     8    40    1
    20     9    10   am
    21     9    41    1
    22    10    11    2
    23    10    12    1
    24    12    13    2
    25    12    14   am
    26    14    29    1
    27    14    15    1
    28    15    16    1
    29    15    42    1
    30    15    43    1
    31    16    17    1
    32    16    44    1
    33    16    45    1
    34    17    18   am
    35    17    28    1
    36    18    19    2
    37    18    20    1
    38    20    21    2
    39    20    22   am
    40    22    27    1
    41    22    23    1
    42    23    24    1
    43    23    46    1
    44    23    47    1
    45    24    25    1
    46    24    48    1
    47    24    49    1
    48    25    26    1
    49    26    27    1
    50    26    50    1
    51    26    51    1
    52    27    52    1
    53    27    53    1
    54    28    29    1
    55    28    54    1
    56    28    55    1
    57    29    56    1
    58    29    57    1
    59    30    31    1
    60    31    58    1
@<TRIPOS>SUBSTRUCTURE
     1 ZINC000482846390        1 TEMP              0 ****  ****    0 ROOT


##########                                Name:    ZINC000772422035
##########                DOCK_Rotatable_Bonds:                  10
##########                         Heavy_Atoms:                  25
##########                    Molecular_Weight:             348.399
##########                DOCK_Rotatable_Bonds:                  10
##########                       Formal_Charge:          0.00999987
##########                     HBond_Acceptors:                   7
##########                        HBond_Donors:                   0
##########                         Heavy_Atoms:                  25
##########                          Grid_Score:          -31.973831
##########                     Grid_vdw_energy:          -31.772306
##########                      Grid_es_energy:           -0.201526
##########           Internal_energy_repulsive:           19.636696

@<TRIPOS>MOLECULE
ZINC000772422035
 49 50 1 0 0
SMALL
USER_CHARGES


@<TRIPOS>ATOM
      1 C1        -15.3647   -3.7542   58.0872 C.3     1  ZINC000772422035    0.0300
      2 O2        -15.2600   -2.3853   58.4835 O.3     1  ZINC000772422035   -0.3900
      3 C3        -14.1210   -2.1014   59.2983 C.3     1  ZINC000772422035    0.0600
      4 C4        -12.8437   -2.4053   58.5130 C.3     1  ZINC000772422035    0.0700
      5 O5        -12.7853   -1.5688   57.3560 O.3     1  ZINC000772422035   -0.3000
      6 C6        -11.7128   -1.7211   56.5392 C.ar    1  ZINC000772422035    0.3300
      7 C7        -11.5895   -0.9222   55.4099 C.ar    1  ZINC000772422035   -0.1700
      8 C8        -10.4904   -1.0876   54.5848 C.ar    1  ZINC000772422035   -0.0200
      9 C9        -10.3192   -0.2405   53.3501 C.3     1  ZINC000772422035    0.1100
     10 O10        -8.9066   -0.1237   53.0354 O.3     1  ZINC000772422035   -0.3500
     11 C11        -8.2329    0.8794   53.6201 C.2     1  ZINC000772422035    0.4700
     12 O12        -8.7050    1.4474   54.5764 O.2     1  ZINC000772422035   -0.5000
     13 C13        -6.8880    1.2971   53.0837 C.3     1  ZINC000772422035   -0.1100
     14 C14        -6.7715    2.8220   53.1305 C.3     1  ZINC000772422035    0.0000
     15 H15        -7.2220    3.1926   54.0512 H       1  ZINC000772422035    0.1000
     16 C16        -7.4988    3.4262   51.9276 C.3     1  ZINC000772422035   -0.1500
     17 C17        -5.3176    3.2162   53.0884 C.2     1  ZINC000772422035   -0.2000
     18 C18        -4.6665    4.0892   53.8938 C.2     1  ZINC000772422035   -0.0200
     19 C19        -5.2576    4.8785   55.0333 C.3     1  ZINC000772422035   -0.0800
     20 O20        -3.3927    4.1125   53.4770 O.3     1  ZINC000772422035    0.1000
     21 N21        -3.2185    3.3703   52.5385 N.2     1  ZINC000772422035   -0.3600
     22 C22        -4.3160    2.7558   52.2032 C.2     1  ZINC000772422035    0.0300
     23 C23        -4.4873    1.7586   51.0863 C.3     1  ZINC000772422035   -0.0800
     24 C24        -9.5496   -2.0510   54.9205 C.ar    1  ZINC000772422035   -0.1900
     25 C25        -9.7365   -2.8099   56.0590 C.ar    1  ZINC000772422035    0.1400
     26 N26       -10.7919   -2.6253   56.8290 N.ar    1  ZINC000772422035   -0.5300
     27 H27       -16.2545   -3.8875   57.4719 H       1  ZINC000772422035    0.0900
     28 H28       -14.4812   -4.0351   57.5141 H       1  ZINC000772422035    0.0400
     29 H29       -15.4382   -4.3844   58.9736 H       1  ZINC000772422035    0.0400
     30 H30       -14.1309   -1.0492   59.5829 H       1  ZINC000772422035    0.0600
     31 H31       -14.1523   -2.7205   60.1950 H       1  ZINC000772422035    0.0700
     32 H32       -11.9753   -2.2142   59.1437 H       1  ZINC000772422035    0.0800
     33 H33       -12.8463   -3.4511   58.2056 H       1  ZINC000772422035    0.0800
     34 H34       -12.3411   -0.1821   55.1783 H       1  ZINC000772422035    0.1400
     35 H35       -10.8403   -0.7071   52.5142 H       1  ZINC000772422035    0.0900
     36 H36       -10.7347    0.7511   53.5294 H       1  ZINC000772422035    0.0900
     37 H37        -6.1003    0.8536   53.6927 H       1  ZINC000772422035    0.1100
     38 H38        -6.7860    0.9564   52.0534 H       1  ZINC000772422035    0.1100
     39 H39        -7.1348    2.9608   51.0116 H       1  ZINC000772422035    0.0600
     40 H40        -8.5699    3.2491   52.0242 H       1  ZINC000772422035    0.0800
     41 H41        -7.3097    4.4990   51.8901 H       1  ZINC000772422035    0.0600
     42 H42        -5.2585    4.2679   55.9362 H       1  ZINC000772422035    0.0900
     43 H43        -4.6614    5.7753   55.2019 H       1  ZINC000772422035    0.0900
     44 H44        -6.2803    5.1633   54.7862 H       1  ZINC000772422035    0.0900
     45 H45        -4.3759    0.7486   51.4808 H       1  ZINC000772422035    0.0800
     46 H46        -5.4791    1.8703   50.6483 H       1  ZINC000772422035    0.0800
     47 H47        -3.7305    1.9356   50.3219 H       1  ZINC000772422035    0.0800
     48 H48        -8.6807   -2.2058   54.2980 H       1  ZINC000772422035    0.1400
     49 H49        -9.0072   -3.5608   56.3248 H       1  ZINC000772422035    0.1700
@<TRIPOS>BOND
     1     1     2    1
     2     1    27    1
     3     1    28    1
     4     1    29    1
     5     2     3    1
     6     3     4    1
     7     3    30    1
     8     3    31    1
     9     4     5    1
    10     4    32    1
    11     4    33    1
    12     5     6    1
    13     6    26   ar
    14     6     7   ar
    15     7     8   ar
    16     7    34    1
    17     8     9    1
    18     8    24   ar
    19     9    10    1
    20     9    35    1
    21     9    36    1
    22    10    11    1
    23    11    12    2
    24    11    13    1
    25    13    14    1
    26    13    37    1
    27    13    38    1
    28    14    15    1
    29    14    16    1
    30    14    17    1
    31    16    39    1
    32    16    40    1
    33    16    41    1
    34    17    22    1
    35    17    18    2
    36    18    19    1
    37    18    20    1
    38    19    42    1
    39    19    43    1
    40    19    44    1
    41    20    21    1
    42    21    22    2
    43    22    23    1
    44    23    45    1
    45    23    46    1
    46    23    47    1
    47    24    25   ar
    48    24    48    1
    49    25    26   ar
    50    25    49    1
@<TRIPOS>SUBSTRUCTURE
     1 ZINC000772422035        1 TEMP              0 ****  ****    0 ROOT


##########                                Name:    ZINC000672622940
##########                DOCK_Rotatable_Bonds:                   7
##########                         Heavy_Atoms:                  30
##########                    Molecular_Weight:             416.523
##########                DOCK_Rotatable_Bonds:                   7
##########                       Formal_Charge:          -0.0100002
##########                     HBond_Acceptors:                   9
##########                        HBond_Donors:                   1
##########                         Heavy_Atoms:                  30
##########                          Grid_Score:          -31.957775
##########                     Grid_vdw_energy:          -31.171608
##########                      Grid_es_energy:           -0.786167
##########           Internal_energy_repulsive:           24.795090

@<TRIPOS>MOLECULE
ZINC000672622940
 62 65 1 0 0
SMALL
USER_CHARGES


@<TRIPOS>ATOM
      1 C1         -6.0003    1.1165   63.6268 C.3     1  ZINC000672622940    0.0800
      2 N2         -7.4480    0.8921   63.6274 N.am    1  ZINC000672622940   -0.6200
      3 C3         -8.1255    0.4840   64.8606 C.3     1  ZINC000672622940    0.0700
      4 C4         -8.1566    1.0611   62.4934 C.2     1  ZINC000672622940    0.5200
      5 O5         -7.5955    1.3975   61.4722 O.2     1  ZINC000672622940   -0.5300
      6 C6         -9.6461    0.8320   62.4946 C.3     1  ZINC000672622940   -0.1000
      7 H7         -9.8748   -0.0688   63.0641 H       1  ZINC000672622940    0.1000
      8 C8        -10.3463    2.0320   63.1354 C.3     1  ZINC000672622940   -0.1300
      9 C9        -11.8584    1.7994   63.1365 C.3     1  ZINC000672622940   -0.1100
     10 C10       -12.3496    1.6312   61.6973 C.3     1  ZINC000672622940   -0.1300
     11 C11       -11.6495    0.4311   61.0565 C.3     1  ZINC000672622940    0.1400
     12 H12       -11.8781   -0.4696   61.6260 H       1  ZINC000672622940    0.1000
     13 N13       -12.1198    0.2701   59.6783 N.am    1  ZINC000672622940   -0.6900
     14 C14       -11.9579   -0.9082   59.0444 C.2     1  ZINC000672622940    0.5100
     15 O15       -11.4240   -1.8362   59.6157 O.2     1  ZINC000672622940   -0.5100
     16 C16       -12.4360   -1.0719   57.6380 C.2     1  ZINC000672622940    0.5100
     17 O17       -13.3508   -1.8306   57.3925 O.2     1  ZINC000672622940   -0.5200
     18 N18       -11.8513   -0.3769   56.6422 N.am    1  ZINC000672622940   -0.5800
     19 C19       -10.7388    0.5408   56.9228 C.3     1  ZINC000672622940    0.0700
     20 C20        -9.5575    0.1746   56.0187 C.3     1  ZINC000672622940   -0.1200
     21 C21       -10.0184    0.1734   54.5594 C.3     1  ZINC000672622940    0.0000
     22 C22        -8.8508   -0.1530   53.6643 C.2     1  ZINC000672622940    0.2000
     23 N23        -8.6480   -1.2791   53.0367 N.2     1  ZINC000672622940   -0.2800
     24 N24        -7.5550   -1.2084   52.3633 N.2     1  ZINC000672622940   -0.2800
     25 C25        -7.0114   -0.0319   52.5308 C.2     1  ZINC000672622940    0.1500
     26 C26        -5.8212    0.8126   52.1304 C.3     1  ZINC000672622940   -0.0400
     27 C27        -6.2375    2.2556   52.4964 C.3     1  ZINC000672622940   -0.1300
     28 C28        -7.2773    2.0113   53.6118 C.3     1  ZINC000672622940    0.1000
     29 N29        -7.8185    0.6708   53.3566 N.pl3   1  ZINC000672622940   -0.4900
     30 C30       -11.1154   -0.8768   54.3700 C.3     1  ZINC000672622940   -0.1200
     31 C31       -12.3102   -0.5272   55.2546 C.3     1  ZINC000672622940    0.1100
     32 C32       -10.1373    0.6637   61.0554 C.3     1  ZINC000672622940   -0.1100
     33 H33        -5.4884    0.1853   63.3841 H       1  ZINC000672622940    0.0600
     34 H34        -5.7502    1.8732   62.8831 H       1  ZINC000672622940    0.0800
     35 H35        -5.6852    1.4581   64.6128 H       1  ZINC000672622940    0.0700
     36 H36        -8.4463    1.3697   65.4090 H       1  ZINC000672622940    0.0600
     37 H37        -8.9950   -0.1249   64.6130 H       1  ZINC000672622940    0.0800
     38 H38        -7.4391   -0.0963   65.4772 H       1  ZINC000672622940    0.0700
     39 H39        -9.9963    2.1518   64.1607 H       1  ZINC000672622940    0.0800
     40 H40       -10.1176    2.9328   62.5658 H       1  ZINC000672622940    0.0700
     41 H41       -12.0871    0.8986   63.7060 H       1  ZINC000672622940    0.0700
     42 H42       -12.3572    2.6544   63.5930 H       1  ZINC000672622940    0.0700
     43 H43       -13.4269    1.4655   61.6980 H       1  ZINC000672622940    0.0700
     44 H44       -12.1209    2.5320   61.1277 H       1  ZINC000672622940    0.0700
     45 H45       -12.5476    1.0115   59.2221 H       1  ZINC000672622940    0.4100
     46 H46       -11.0503    1.5654   56.7200 H       1  ZINC000672622940    0.0700
     47 H47       -10.4422    0.4468   57.9675 H       1  ZINC000672622940    0.1400
     48 H48        -8.7601    0.9065   56.1477 H       1  ZINC000672622940    0.0800
     49 H49        -9.1892   -0.8162   56.2847 H       1  ZINC000672622940    0.0800
     50 H50       -10.4098    1.1575   54.3013 H       1  ZINC000672622940    0.0900
     51 H51        -4.9365    0.5165   52.6940 H       1  ZINC000672622940    0.1000
     52 H52        -5.6375    0.7289   51.0592 H       1  ZINC000672622940    0.1000
     53 H53        -5.3869    2.8230   52.8738 H       1  ZINC000672622940    0.1100
     54 H54        -6.6923    2.7586   51.6429 H       1  ZINC000672622940    0.0900
     55 H55        -6.7968    2.0484   54.5896 H       1  ZINC000672622940    0.1000
     56 H56        -8.0735    2.7534   53.5539 H       1  ZINC000672622940    0.1000
     57 H57       -11.4268   -0.8935   53.3255 H       1  ZINC000672622940    0.0800
     58 H58       -10.7323   -1.8577   54.6516 H       1  ZINC000672622940    0.0800
     59 H59       -13.0522   -1.3237   55.1980 H       1  ZINC000672622940    0.1000
     60 H60       -12.7518    0.4109   54.9183 H       1  ZINC000672622940    0.0800
     61 H61        -9.9086    1.5646   60.4857 H       1  ZINC000672622940    0.0800
     62 H62        -9.6385   -0.1912   60.5988 H       1  ZINC000672622940    0.0800
@<TRIPOS>BOND
     1     1     2    1
     2     1    33    1
     3     1    34    1
     4     1    35    1
     5     2     3    1
     6     2     4   am
     7     3    36    1
     8     3    37    1
     9     3    38    1
    10     4     5    2
    11     4     6    1
    12     6     7    1
    13     6    32    1
    14     6     8    1
    15     8     9    1
    16     8    39    1
    17     8    40    1
    18     9    10    1
    19     9    41    1
    20     9    42    1
    21    10    11    1
    22    10    43    1
    23    10    44    1
    24    11    12    1
    25    11    13    1
    26    11    32    1
    27    13    14   am
    28    13    45    1
    29    14    15    2
    30    14    16    1
    31    16    17    2
    32    16    18   am
    33    18    31    1
    34    18    19    1
    35    19    20    1
    36    19    46    1
    37    19    47    1
    38    20    21    1
    39    20    48    1
    40    20    49    1
    41    21    22    1
    42    21    30    1
    43    21    50    1
    44    22    29    1
    45    22    23    2
    46    23    24    1
    47    24    25    2
    48    25    29    1
    49    25    26    1
    50    26    27    1
    51    26    51    1
    52    26    52    1
    53    27    28    1
    54    27    53    1
    55    27    54    1
    56    28    29    1
    57    28    55    1
    58    28    56    1
    59    30    31    1
    60    30    57    1
    61    30    58    1
    62    31    59    1
    63    31    60    1
    64    32    61    1
    65    32    62    1
@<TRIPOS>SUBSTRUCTURE
     1 ZINC000672622940        1 TEMP              0 ****  ****    0 ROOT


##########                                Name:    ZINC001574157642
##########                DOCK_Rotatable_Bonds:                   9
##########                         Heavy_Atoms:                  28
##########                    Molecular_Weight:             387.445
##########                DOCK_Rotatable_Bonds:                   9
##########                       Formal_Charge:          -0.0400004
##########                     HBond_Acceptors:                  11
##########                        HBond_Donors:                   4
##########                         Heavy_Atoms:                  28
##########                          Grid_Score:          -31.922157
##########                     Grid_vdw_energy:          -28.669020
##########                      Grid_es_energy:           -3.253138
##########           Internal_energy_repulsive:           12.781428

@<TRIPOS>MOLECULE
ZINC001574157642
 53 55 1 0 0
SMALL
USER_CHARGES


@<TRIPOS>ATOM
      1 C1         -6.8856    2.3266   64.0853 C.3     1  ZINC001574157642   -0.1400
      2 C2         -7.9813    1.3443   63.6662 C.3     1  ZINC001574157642   -0.0900
      3 C3         -8.3306    0.4358   64.8466 C.3     1  ZINC001574157642   -0.1500
      4 C4         -9.2263    2.1224   63.2356 C.3     1  ZINC001574157642   -0.1300
      5 C5         -9.3426    2.0950   61.7102 C.3     1  ZINC001574157642    0.1300
      6 H6        -10.0361    2.8704   61.3847 H       1  ZINC001574157642    0.1100
      7 C7         -9.8609    0.7267   61.2627 C.3     1  ZINC001574157642    0.1100
      8 N8        -11.3033    0.6474   61.5061 N.pl3   1  ZINC001574157642   -0.7100
      9 C9        -12.0805   -0.2531   60.7884 C.ar    1  ZINC001574157642    0.3700
     10 C10       -13.4572   -0.3077   60.9992 C.ar    1  ZINC001574157642    0.0000
     11 N11       -14.1952   -1.1622   60.3189 N.ar    1  ZINC001574157642   -0.3700
     12 C12       -13.6261   -1.9724   59.4307 C.ar    1  ZINC001574157642    0.0800
     13 C13       -14.4566   -2.9342   58.6643 C.2     1  ZINC001574157642    0.2300
     14 N14       -15.7635   -3.0874   58.7481 N.2     1  ZINC001574157642   -0.2700
     15 N15       -16.1048   -4.0181   57.9247 N.pl3   1  ZINC001574157642   -0.2300
     16 N16       -15.0563   -4.4594   57.3221 N.2     1  ZINC001574157642   -0.0400
     17 N17       -14.0249   -3.8123   57.7478 N.2     1  ZINC001574157642   -0.2600
     18 C18       -12.2503   -1.9174   59.2199 C.ar    1  ZINC001574157642    0.1600
     19 N19       -11.5125   -1.0576   59.8983 N.ar    1  ZINC001574157642   -0.5000
     20 N20        -8.0257    2.3366   61.1156 N.am    1  ZINC001574157642   -0.7300
     21 C21        -7.9178    3.0791   59.9960 C.2     1  ZINC001574157642    0.5200
     22 O22        -8.9111    3.5459   59.4798 O.2     1  ZINC001574157642   -0.5100
     23 C23        -6.5630    3.3292   59.3853 C.3     1  ZINC001574157642   -0.1300
     24 H24        -5.8130    3.3943   60.1736 H       1  ZINC001574157642    0.1100
     25 C25        -6.5905    4.6410   58.5918 C.3     1  ZINC001574157642   -0.1000
     26 C26        -5.1642    4.9621   58.1382 C.3     1  ZINC001574157642   -0.1400
     27 C27        -4.5449    3.7503   57.5033 C.2     1  ZINC001574157642    0.5200
     28 O28        -3.5633    3.9050   56.8078 O.2     1  ZINC001574157642   -0.5500
     29 N29        -5.0160    2.5131   57.6636 N.am    1  ZINC001574157642   -0.7200
     30 C30        -6.2097    2.1849   58.4343 C.3     1  ZINC001574157642    0.1200
     31 H31        -7.2409    2.9335   64.9181 H       1  ZINC001574157642    0.0400
     32 H32        -5.9987    1.7722   64.3920 H       1  ZINC001574157642    0.0500
     33 H33        -6.6368    2.9738   63.2443 H       1  ZINC001574157642    0.0700
     34 H34        -7.6261    0.7375   62.8333 H       1  ZINC001574157642    0.0700
     35 H35        -8.6859    1.0427   65.6794 H       1  ZINC001574157642    0.0500
     36 H36        -9.1112   -0.2640   64.5480 H       1  ZINC001574157642    0.0500
     37 H37        -7.4436   -0.1184   65.1533 H       1  ZINC001574157642    0.0500
     38 H38       -10.1117    1.6637   63.6758 H       1  ZINC001574157642    0.0700
     39 H39        -9.1451    3.1549   63.5752 H       1  ZINC001574157642    0.0800
     40 H40        -9.6640    0.5938   60.1989 H       1  ZINC001574157642    0.0800
     41 H41        -9.3536   -0.0561   61.8267 H       1  ZINC001574157642    0.0900
     42 H42       -11.7158    1.2237   62.1685 H       1  ZINC001574157642    0.4100
     43 H43       -13.9194    0.3502   61.7203 H       1  ZINC001574157642    0.1700
     44 H44       -17.0098   -4.3366   57.7817 H       1  ZINC001574157642    0.4800
     45 H45       -11.7876   -2.5753   58.4990 H       1  ZINC001574157642    0.1800
     46 H46        -7.2314    1.9623   61.5278 H       1  ZINC001574157642    0.4000
     47 H47        -7.2362    4.5294   57.7206 H       1  ZINC001574157642    0.0800
     48 H48        -6.9640    5.4454   59.2254 H       1  ZINC001574157642    0.0900
     49 H49        -5.1891    5.7771   57.4148 H       1  ZINC001574157642    0.1100
     50 H50        -4.5692    5.2630   59.0006 H       1  ZINC001574157642    0.1000
     51 H51        -4.5332    1.7847   57.2429 H       1  ZINC001574157642    0.4000
     52 H52        -6.0293    1.2760   59.0083 H       1  ZINC001574157642    0.0800
     53 H53        -7.0437    2.0174   57.7529 H       1  ZINC001574157642    0.0700
@<TRIPOS>BOND
     1     1     2    1
     2     1    31    1
     3     1    32    1
     4     1    33    1
     5     2     3    1
     6     2     4    1
     7     2    34    1
     8     3    35    1
     9     3    36    1
    10     3    37    1
    11     4     5    1
    12     4    38    1
    13     4    39    1
    14     5     6    1
    15     5     7    1
    16     5    20    1
    17     7     8    1
    18     7    40    1
    19     7    41    1
    20     8     9    1
    21     8    42    1
    22     9    19   ar
    23     9    10   ar
    24    10    11   ar
    25    10    43    1
    26    11    12   ar
    27    12    13    1
    28    12    18   ar
    29    13    17    1
    30    13    14    2
    31    14    15    1
    32    15    16    1
    33    15    44    1
    34    16    17    2
    35    18    19   ar
    36    18    45    1
    37    20    21   am
    38    20    46    1
    39    21    22    2
    40    21    23    1
    41    23    24    1
    42    23    30    1
    43    23    25    1
    44    25    26    1
    45    25    47    1
    46    25    48    1
    47    26    27    1
    48    26    49    1
    49    26    50    1
    50    27    28    2
    51    27    29   am
    52    29    30    1
    53    29    51    1
    54    30    52    1
    55    30    53    1
@<TRIPOS>SUBSTRUCTURE
     1 ZINC001574157642        1 TEMP              0 ****  ****    0 ROOT


##########                                Name:    ZINC001191196975
##########                DOCK_Rotatable_Bonds:                  14
##########                         Heavy_Atoms:                  24
##########                    Molecular_Weight:             339.438
##########                DOCK_Rotatable_Bonds:                  14
##########                       Formal_Charge:          0.00999969
##########                     HBond_Acceptors:                   8
##########                        HBond_Donors:                   4
##########                         Heavy_Atoms:                  24
##########                          Grid_Score:          -31.919003
##########                     Grid_vdw_energy:          -30.241812
##########                      Grid_es_energy:           -1.677190
##########           Internal_energy_repulsive:           12.867074

@<TRIPOS>MOLECULE
ZINC001191196975
 53 53 1 0 0
SMALL
USER_CHARGES


@<TRIPOS>ATOM
      1 C1         -9.8216    1.8451   53.0780 C.2     1  ZINC001191196975   -0.1600
      2 C2         -9.3597    0.8185   53.7479 C.2     1  ZINC001191196975   -0.1800
      3 C3         -9.6813   -0.5827   53.2960 C.3     1  ZINC001191196975    0.1500
      4 N4         -9.6547   -1.4860   54.4490 N.am    1  ZINC001191196975   -0.7300
      5 C5        -10.8032   -1.8198   55.0701 C.2     1  ZINC001191196975    0.5100
      6 O6        -11.8589   -1.3736   54.6736 O.2     1  ZINC001191196975   -0.5200
      7 C7        -10.7756   -2.7476   56.2574 C.3     1  ZINC001191196975    0.0300
      8 N8        -11.7125   -2.2625   57.2797 N.3     1  ZINC001191196975   -0.5100
      9 C9        -12.8241   -3.2050   57.4647 C.3     1  ZINC001191196975    0.0200
     10 C10       -11.0203   -2.0090   58.5504 C.3     1  ZINC001191196975    0.0700
     11 H11       -10.6885   -2.9424   59.0051 H       1  ZINC001191196975    0.0600
     12 C12       -11.9220   -1.2055   59.5243 C.3     1  ZINC001191196975   -0.1200
     13 C13       -10.8990   -0.4729   60.4177 C.3     1  ZINC001191196975    0.1000
     14 N14        -9.6354   -0.4050   59.6692 N.am    1  ZINC001191196975   -0.6200
     15 C15        -8.4869    0.1415   60.1147 C.2     1  ZINC001191196975    0.5300
     16 O16        -7.5015    0.1425   59.4077 O.2     1  ZINC001191196975   -0.5400
     17 C17        -8.4270    0.7514   61.4915 C.3     1  ZINC001191196975   -0.1300
     18 C18        -6.9863    1.1587   61.8067 C.3     1  ZINC001191196975   -0.1000
     19 C19        -6.9179    1.7383   63.2210 C.3     1  ZINC001191196975   -0.1300
     20 C20        -6.6767    0.6084   64.2241 C.3     1  ZINC001191196975    0.1400
     21 N21        -7.8527    0.4604   65.0851 N.am    1  ZINC001191196975   -0.7500
     22 C22        -7.7242   -0.0758   66.3149 C.2     1  ZINC001191196975    0.7000
     23 N23        -8.8058   -0.2105   67.1076 N.am    1  ZINC001191196975   -0.8700
     24 O24        -6.6326   -0.4380   66.7092 O.2     1  ZINC001191196975   -0.5900
     25 C25        -9.8319   -1.0356   58.3506 C.3     1  ZINC001191196975    0.1100
     26 H26       -10.4330    1.6872   52.2017 H       1  ZINC001191196975    0.1000
     27 H27        -9.5948    2.8492   53.4045 H       1  ZINC001191196975    0.1000
     28 H28        -8.7483    0.9763   54.6241 H       1  ZINC001191196975    0.1200
     29 H29       -10.6728   -0.6000   52.8437 H       1  ZINC001191196975    0.0800
     30 H30        -8.9421   -0.9067   52.5634 H       1  ZINC001191196975    0.0700
     31 H31        -8.8104   -1.8438   54.7654 H       1  ZINC001191196975    0.4000
     32 H32       -11.0680   -3.7493   55.9427 H       1  ZINC001191196975    0.0700
     33 H33        -9.7682   -2.7767   56.6725 H       1  ZINC001191196975    0.1100
     34 H34       -12.4271   -4.1986   57.6728 H       1  ZINC001191196975    0.0200
     35 H35       -13.4422   -2.8782   58.3008 H       1  ZINC001191196975    0.0700
     36 H36       -13.4276   -3.2375   56.5576 H       1  ZINC001191196975    0.0900
     37 H37       -12.5387   -0.4913   58.9785 H       1  ZINC001191196975    0.0900
     38 H38       -12.5420   -1.8768   60.1185 H       1  ZINC001191196975    0.0800
     39 H39       -11.2536    0.5339   60.6384 H       1  ZINC001191196975    0.0700
     40 H40       -10.7517   -1.0277   61.3443 H       1  ZINC001191196975    0.0700
     41 H41        -9.0694    1.6313   61.5272 H       1  ZINC001191196975    0.0900
     42 H42        -8.7677    0.0226   62.2268 H       1  ZINC001191196975    0.0900
     43 H43        -6.3388    0.2843   61.7407 H       1  ZINC001191196975    0.0800
     44 H44        -6.6560    1.9103   61.0897 H       1  ZINC001191196975    0.0800
     45 H45        -6.1006    2.4571   63.2800 H       1  ZINC001191196975    0.0700
     46 H46        -7.8583    2.2373   63.4550 H       1  ZINC001191196975    0.0700
     47 H47        -6.5004   -0.3232   63.6865 H       1  ZINC001191196975    0.0700
     48 H48        -5.8061    0.8453   64.8357 H       1  ZINC001191196975    0.0700
     49 H49        -8.7238    0.7483   64.7701 H       1  ZINC001191196975    0.4000
     50 H50        -8.7137   -0.5975   67.9924 H       1  ZINC001191196975    0.4000
     51 H51        -9.6765    0.0796   66.7934 H       1  ZINC001191196975    0.4200
     52 H52        -8.9371   -1.5833   58.0549 H       1  ZINC001191196975    0.0800
     53 H53       -10.0809   -0.2823   57.6032 H       1  ZINC001191196975    0.0800
@<TRIPOS>BOND
     1     1     2    2
     2     1    26    1
     3     1    27    1
     4     2     3    1
     5     2    28    1
     6     3     4    1
     7     3    29    1
     8     3    30    1
     9     4     5   am
    10     4    31    1
    11     5     6    2
    12     5     7    1
    13     7     8    1
    14     7    32    1
    15     7    33    1
    16     8     9    1
    17     8    10    1
    18     9    34    1
    19     9    35    1
    20     9    36    1
    21    10    11    1
    22    10    25    1
    23    10    12    1
    24    12    13    1
    25    12    37    1
    26    12    38    1
    27    13    14    1
    28    13    39    1
    29    13    40    1
    30    14    15   am
    31    14    25    1
    32    15    16    2
    33    15    17    1
    34    17    18    1
    35    17    41    1
    36    17    42    1
    37    18    19    1
    38    18    43    1
    39    18    44    1
    40    19    20    1
    41    19    45    1
    42    19    46    1
    43    20    21    1
    44    20    47    1
    45    20    48    1
    46    21    22   am
    47    21    49    1
    48    22    23   am
    49    22    24    2
    50    23    50    1
    51    23    51    1
    52    25    52    1
    53    25    53    1
@<TRIPOS>SUBSTRUCTURE
     1 ZINC001191196975        1 TEMP              0 ****  ****    0 ROOT


##########                                Name:    ZINC001573443776
##########                DOCK_Rotatable_Bonds:                   8
##########                         Heavy_Atoms:                  28
##########                    Molecular_Weight:             386.457
##########                DOCK_Rotatable_Bonds:                   8
##########                       Formal_Charge:          0.00999954
##########                     HBond_Acceptors:                  10
##########                        HBond_Donors:                   3
##########                         Heavy_Atoms:                  28
##########                          Grid_Score:          -31.825541
##########                     Grid_vdw_energy:          -29.320404
##########                      Grid_es_energy:           -2.505137
##########           Internal_energy_repulsive:           32.228832

@<TRIPOS>MOLECULE
ZINC001573443776
 54 56 1 0 0
SMALL
USER_CHARGES


@<TRIPOS>ATOM
      1 C1         -4.6245    3.3511   65.1396 C.3     1  ZINC001573443776   -0.1800
      2 C2         -5.3125    2.4921   66.1690 C.2     1  ZINC001573443776    0.5100
      3 O3         -4.7762    2.2764   67.2353 O.2     1  ZINC001573443776   -0.5400
      4 N4         -6.5238    1.9636   65.9048 N.am    1  ZINC001573443776   -0.6100
      5 C5         -7.2071    1.1241   66.8983 C.3     1  ZINC001573443776    0.1100
      6 C6         -7.5870   -0.2069   66.2417 C.3     1  ZINC001573443776   -0.1300
      7 C7         -8.4078    0.0675   64.9795 C.3     1  ZINC001573443776   -0.1000
      8 C8         -7.5663    0.8730   63.9869 C.3     1  ZINC001573443776   -0.1200
      9 H9         -6.6613    0.3171   63.7419 H       1  ZINC001573443776    0.1000
     10 C10        -8.3638    1.1142   62.7311 C.2     1  ZINC001573443776    0.5200
     11 O11        -9.2551    0.3518   62.4229 O.2     1  ZINC001573443776   -0.5300
     12 N12        -8.0862    2.1773   61.9504 N.am    1  ZINC001573443776   -0.7300
     13 C13        -8.8626    2.4127   60.7306 C.3     1  ZINC001573443776    0.1100
     14 C14        -8.0197    2.0392   59.5095 C.3     1  ZINC001573443776    0.1400
     15 H15        -6.9825    2.3261   59.6826 H       1  ZINC001573443776    0.0900
     16 C16        -8.0992    0.5289   59.2775 C.3     1  ZINC001573443776   -0.1700
     17 N17        -8.5305    2.7419   58.3300 N.pl3   1  ZINC001573443776   -0.7200
     18 C18        -8.0276    2.4413   57.0704 C.ar    1  ZINC001573443776    0.4300
     19 C19        -6.7267    2.8131   56.7434 C.ar    1  ZINC001573443776   -0.2500
     20 C20        -6.2340    2.5101   55.4892 C.ar    1  ZINC001573443776    0.0100
     21 C21        -7.0689    1.8366   54.5912 C.ar    1  ZINC001573443776   -0.1400
     22 C22        -6.5858    1.4880   53.2317 C.2     1  ZINC001573443776    0.2400
     23 N23        -6.3682    2.3232   52.2352 N.2     1  ZINC001573443776   -0.3000
     24 N24        -5.9554    1.6350   51.2269 N.pl3   1  ZINC001573443776   -0.2300
     25 N25        -5.9044    0.3906   51.5527 N.2     1  ZINC001573443776   -0.0500
     26 N26        -6.2803    0.2633   52.7799 N.2     1  ZINC001573443776   -0.2700
     27 C27        -8.3583    1.4973   54.9900 C.ar    1  ZINC001573443776    0.2300
     28 C28        -9.2682    0.7716   54.0327 C.3     1  ZINC001573443776   -0.1200
     29 N29        -8.7902    1.7997   56.1978 N.ar    1  ZINC001573443776   -0.5400
     30 C30        -7.1887    2.2208   64.6201 C.3     1  ZINC001573443776    0.1200
     31 H31        -3.9448    2.7366   64.5493 H       1  ZINC001573443776    0.0900
     32 H32        -5.3703    3.8005   64.4841 H       1  ZINC001573443776    0.0800
     33 H33        -4.0604    4.1376   65.6411 H       1  ZINC001573443776    0.1000
     34 H34        -6.5406    0.9389   67.7406 H       1  ZINC001573443776    0.1000
     35 H35        -8.1078    1.6298   67.2466 H       1  ZINC001573443776    0.0700
     36 H36        -6.6818   -0.7527   65.9755 H       1  ZINC001573443776    0.0700
     37 H37        -8.1787   -0.8005   66.9385 H       1  ZINC001573443776    0.0800
     38 H38        -8.7003   -0.8785   64.5237 H       1  ZINC001573443776    0.0800
     39 H39        -9.3004    0.6347   65.2429 H       1  ZINC001573443776    0.0700
     40 H40        -7.3726    2.7864   62.1962 H       1  ZINC001573443776    0.4000
     41 H41        -9.7647    1.8012   60.7502 H       1  ZINC001573443776    0.0900
     42 H42        -9.1387    3.4657   60.6731 H       1  ZINC001573443776    0.0800
     43 H43        -7.7192    0.0060   60.1552 H       1  ZINC001573443776    0.0700
     44 H44        -9.1364    0.2420   59.1045 H       1  ZINC001573443776    0.0700
     45 H45        -7.4987    0.2628   58.4078 H       1  ZINC001573443776    0.0700
     46 H46        -9.2198    3.4172   58.4284 H       1  ZINC001573443776    0.4100
     47 H47        -6.1100    3.3327   57.4617 H       1  ZINC001573443776    0.1400
     48 H48        -5.2286    2.7869   55.2084 H       1  ZINC001573443776    0.1400
     49 H49        -5.7202    1.9978   50.3585 H       1  ZINC001573443776    0.4800
     50 H50        -9.1414   -0.3040   54.1555 H       1  ZINC001573443776    0.0800
     51 H51       -10.3036    1.0414   54.2405 H       1  ZINC001573443776    0.0800
     52 H52        -9.0178    1.0525   53.0098 H       1  ZINC001573443776    0.1100
     53 H53        -8.0890    2.8140   64.7808 H       1  ZINC001573443776    0.0800
     54 H54        -6.5083    2.7574   63.9589 H       1  ZINC001573443776    0.0900
@<TRIPOS>BOND
     1     1     2    1
     2     1    31    1
     3     1    32    1
     4     1    33    1
     5     2     3    2
     6     2     4   am
     7     4    30    1
     8     4     5    1
     9     5     6    1
    10     5    34    1
    11     5    35    1
    12     6     7    1
    13     6    36    1
    14     6    37    1
    15     7     8    1
    16     7    38    1
    17     7    39    1
    18     8     9    1
    19     8    10    1
    20     8    30    1
    21    10    11    2
    22    10    12   am
    23    12    13    1
    24    12    40    1
    25    13    14    1
    26    13    41    1
    27    13    42    1
    28    14    15    1
    29    14    16    1
    30    14    17    1
    31    16    43    1
    32    16    44    1
    33    16    45    1
    34    17    18    1
    35    17    46    1
    36    18    29   ar
    37    18    19   ar
    38    19    20   ar
    39    19    47    1
    40    20    21   ar
    41    20    48    1
    42    21    22    1
    43    21    27   ar
    44    22    26    1
    45    22    23    2
    46    23    24    1
    47    24    25    1
    48    24    49    1
    49    25    26    2
    50    27    28    1
    51    27    29   ar
    52    28    50    1
    53    28    51    1
    54    28    52    1
    55    30    53    1
    56    30    54    1
@<TRIPOS>SUBSTRUCTURE
     1 ZINC001573443776        1 TEMP              0 ****  ****    0 ROOT


##########                                Name:    ZINC000492313853
##########                DOCK_Rotatable_Bonds:                   8
##########                         Heavy_Atoms:                  30
##########                    Molecular_Weight:             418.422
##########                DOCK_Rotatable_Bonds:                   8
##########                       Formal_Charge:          -0.0100008
##########                     HBond_Acceptors:                  10
##########                        HBond_Donors:                   2
##########                         Heavy_Atoms:                  30
##########                          Grid_Score:          -31.804895
##########                     Grid_vdw_energy:          -33.375164
##########                      Grid_es_energy:            1.570269
##########           Internal_energy_repulsive:           16.763180

@<TRIPOS>MOLECULE
ZINC000492313853
 51 53 1 0 0
SMALL
USER_CHARGES


@<TRIPOS>ATOM
      1 C1          5.0509   -5.0166   44.8895 C.3     1  ZINC000492313853    0.0900
      2 N2          5.6843   -3.7241   45.1628 N.pl3   1  ZINC000492313853   -0.6200
      3 C3          6.7304   -3.2179   44.2709 C.3     1  ZINC000492313853    0.1000
      4 C4          5.2926   -2.9781   46.2684 C.ar    1  ZINC000492313853    0.4100
      5 C5          4.3036   -3.4679   47.1150 C.ar    1  ZINC000492313853   -0.2400
      6 C6          3.9238   -2.7153   48.2119 C.ar    1  ZINC000492313853   -0.0100
      7 C7          4.5483   -1.4939   48.4259 C.ar    1  ZINC000492313853   -0.2300
      8 C8          4.1669   -0.6408   49.6082 C.3     1  ZINC000492313853    0.2000
      9 N9          3.1303    0.3137   49.2076 N.am    1  ZINC000492313853   -0.7300
     10 C10         2.3881    0.9354   50.1453 C.2     1  ZINC000492313853    0.7100
     11 O11         2.5799    0.7051   51.3237 O.2     1  ZINC000492313853   -0.5600
     12 N12         1.4333    1.8123   49.7768 N.am    1  ZINC000492313853   -0.6600
     13 C13         0.6639    2.4546   50.7472 C.2     1  ZINC000492313853    0.3300
     14 C14        -0.6699    2.2916   50.9499 C.2     1  ZINC000492313853   -0.2600
     15 C15        -1.0465    3.1214   52.0224 C.2     1  ZINC000492313853    0.1200
     16 C16        -2.4151    3.2560   52.5803 C.ar    1  ZINC000492313853   -0.0100
     17 C17        -2.6236    3.9758   53.7548 C.ar    1  ZINC000492313853   -0.0600
     18 C18        -3.8988    4.0982   54.2691 C.ar    1  ZINC000492313853   -0.1200
     19 C19        -4.9683    3.5081   53.6206 C.ar    1  ZINC000492313853   -0.0700
     20 C20        -4.7670    2.7923   52.4539 C.ar    1  ZINC000492313853   -0.1900
     21 C21        -5.9373    2.1524   51.7526 C.3     1  ZINC000492313853    0.5100
     22 F22        -6.9173    3.1194   51.5036 F       1  ZINC000492313853   -0.1800
     23 F23        -5.5093    1.5995   50.5409 F       1  ZINC000492313853   -0.1800
     24 F24        -6.4719    1.1445   52.5622 F       1  ZINC000492313853   -0.1800
     25 C25        -3.4971    2.6679   51.9282 C.ar    1  ZINC000492313853   -0.0400
     26 N26         0.0256    3.7573   52.4448 N.2     1  ZINC000492313853   -0.2700
     27 N27         1.1146    3.3511   51.6634 N.pl3   1  ZINC000492313853   -0.3900
     28 C28         2.4961    3.8182   51.8030 C.3     1  ZINC000492313853    0.1000
     29 C29         5.5226   -1.0690   47.5447 C.ar    1  ZINC000492313853    0.1700
     30 N30         5.8684   -1.8102   46.5093 N.ar    1  ZINC000492313853   -0.5400
     31 H31         5.6077   -5.8076   45.3920 H       1  ZINC000492313853    0.0600
     32 H32         4.0252   -5.0038   45.2581 H       1  ZINC000492313853    0.0700
     33 H33         5.0486   -5.2001   43.8151 H       1  ZINC000492313853    0.0700
     34 H34         6.9005   -3.9342   43.4670 H       1  ZINC000492313853    0.0700
     35 H35         6.4163   -2.2641   43.8470 H       1  ZINC000492313853    0.0600
     36 H36         7.6527   -3.0788   44.8348 H       1  ZINC000492313853    0.0600
     37 H37         3.8382   -4.4224   46.9185 H       1  ZINC000492313853    0.1300
     38 H38         3.1584   -3.0697   48.8865 H       1  ZINC000492313853    0.1400
     39 H39         3.7860   -1.2768   50.4073 H       1  ZINC000492313853    0.0800
     40 H40         5.0433   -0.0981   49.9623 H       1  ZINC000492313853    0.0800
     41 H41         2.9780    0.4982   48.2676 H       1  ZINC000492313853    0.4000
     42 H42         1.2811    1.9969   48.8367 H       1  ZINC000492313853    0.4100
     43 H43        -1.3242    1.6417   50.3878 H       1  ZINC000492313853    0.1800
     44 H44        -1.7891    4.4366   54.2621 H       1  ZINC000492313853    0.1400
     45 H45        -4.0615    4.6557   55.1796 H       1  ZINC000492313853    0.1400
     46 H46        -5.9643    3.6062   54.0264 H       1  ZINC000492313853    0.1400
     47 H47        -3.3410    2.1090   51.0174 H       1  ZINC000492313853    0.1400
     48 H48         3.0294    3.1721   52.5002 H       1  ZINC000492313853    0.0800
     49 H49         2.9893    3.7897   50.8314 H       1  ZINC000492313853    0.0800
     50 H50         2.4974    4.8404   52.1814 H       1  ZINC000492313853    0.1000
     51 H51         6.0110   -0.1195   47.7074 H       1  ZINC000492313853    0.1600
@<TRIPOS>BOND
     1     1     2    1
     2     1    31    1
     3     1    32    1
     4     1    33    1
     5     2     3    1
     6     2     4    1
     7     3    34    1
     8     3    35    1
     9     3    36    1
    10     4    30   ar
    11     4     5   ar
    12     5     6   ar
    13     5    37    1
    14     6     7   ar
    15     6    38    1
    16     7     8    1
    17     7    29   ar
    18     8     9    1
    19     8    39    1
    20     8    40    1
    21     9    10   am
    22     9    41    1
    23    10    11    2
    24    10    12   am
    25    12    13    1
    26    12    42    1
    27    13    27    1
    28    13    14    2
    29    14    15    1
    30    14    43    1
    31    15    16    1
    32    15    26    2
    33    16    25   ar
    34    16    17   ar
    35    17    18   ar
    36    17    44    1
    37    18    19   ar
    38    18    45    1
    39    19    20   ar
    40    19    46    1
    41    20    21    1
    42    20    25   ar
    43    21    22    1
    44    21    23    1
    45    21    24    1
    46    25    47    1
    47    26    27    1
    48    27    28    1
    49    28    48    1
    50    28    49    1
    51    28    50    1
    52    29    30   ar
    53    29    51    1
@<TRIPOS>SUBSTRUCTURE
     1 ZINC000492313853        1 TEMP              0 ****  ****    0 ROOT


##########                                Name:    ZINC000175255939
##########                DOCK_Rotatable_Bonds:                   8
##########                         Heavy_Atoms:                  28
##########                    Molecular_Weight:             394.375
##########                DOCK_Rotatable_Bonds:                   8
##########                       Formal_Charge:          -0.0399999
##########                     HBond_Acceptors:                   9
##########                        HBond_Donors:                   1
##########                         Heavy_Atoms:                  28
##########                          Grid_Score:          -31.786327
##########                     Grid_vdw_energy:          -31.099051
##########                      Grid_es_energy:           -0.687276
##########           Internal_energy_repulsive:           12.394863

@<TRIPOS>MOLECULE
ZINC000175255939
 48 50 1 0 0
SMALL
USER_CHARGES


@<TRIPOS>ATOM
      1 C1          5.2127   -2.4027   50.9510 C.3     1  ZINC000175255939    0.0300
      2 O2          4.4993   -1.1852   50.6086 O.3     1  ZINC000175255939   -0.3600
      3 C3          5.0640   -0.0242   50.9760 C.2     1  ZINC000175255939    0.4600
      4 O4          6.1229   -0.0249   51.5578 O.2     1  ZINC000175255939   -0.5000
      5 C5          4.3773    1.2801   50.6626 C.3     1  ZINC000175255939   -0.0800
      6 H6          4.6279    2.0155   51.4272 H       1  ZINC000175255939    0.1100
      7 C7          4.8429    1.7862   49.2959 C.3     1  ZINC000175255939   -0.1200
      8 C8          4.1456    3.1104   48.9778 C.3     1  ZINC000175255939   -0.1100
      9 C9          2.6309    2.8962   48.9534 C.3     1  ZINC000175255939   -0.1200
     10 C10         2.1652    2.3901   50.3201 C.3     1  ZINC000175255939   -0.1000
     11 H11         2.4158    3.1255   51.0845 H       1  ZINC000175255939    0.1100
     12 C12         0.6732    2.1790   50.2959 C.2     1  ZINC000175255939    0.5100
     13 O13         0.1449    1.6962   49.3169 O.2     1  ZINC000175255939   -0.4800
     14 N14        -0.0738    2.5268   51.3624 N.am    1  ZINC000175255939   -0.6300
     15 C15        -1.4479    2.3339   51.3395 C.2     1  ZINC000175255939    0.2100
     16 C16        -2.3339    2.6609   52.3222 C.2     1  ZINC000175255939   -0.2600
     17 C17        -3.5888    2.2567   51.7972 C.2     1  ZINC000175255939    0.0900
     18 C18        -4.9119    2.3798   52.4576 C.ar    1  ZINC000175255939   -0.0500
     19 C19        -5.2228    3.5242   53.1899 C.ar    1  ZINC000175255939   -0.0600
     20 C20        -6.4530    3.6359   53.8026 C.ar    1  ZINC000175255939   -0.1300
     21 C21        -7.3815    2.6096   53.6908 C.ar    1  ZINC000175255939    0.1200
     22 O22        -8.5927    2.7224   54.2954 O.3     1  ZINC000175255939   -0.3200
     23 C23        -9.7253    2.2310   53.5758 C.3     1  ZINC000175255939    0.4100
     24 F24       -10.8856    2.4511   54.3260 F       1  ZINC000175255939   -0.2000
     25 F25        -9.8271    2.9014   52.3521 F       1  ZINC000175255939   -0.2000
     26 C26        -7.0745    1.4684   52.9618 C.ar    1  ZINC000175255939   -0.1900
     27 C27        -5.8482    1.3539   52.3418 C.ar    1  ZINC000175255939   -0.0500
     28 N28        -3.3451    1.7522   50.6111 N.2     1  ZINC000175255939   -0.3600
     29 O29        -2.1671    1.7937   50.3427 O.3     1  ZINC000175255939    0.1200
     30 C30         2.8624    1.0659   50.6381 C.3     1  ZINC000175255939   -0.0900
     31 H31         4.6487   -3.2659   50.5976 H       1  ZINC000175255939    0.1000
     32 H32         6.1954   -2.3928   50.4793 H       1  ZINC000175255939    0.0600
     33 H33         5.3296   -2.4633   52.0330 H       1  ZINC000175255939    0.0600
     34 H34         5.9220    1.9388   49.3134 H       1  ZINC000175255939    0.0800
     35 H35         4.5922    1.0508   48.5315 H       1  ZINC000175255939    0.0700
     36 H36         4.3962    3.8459   49.7423 H       1  ZINC000175255939    0.0700
     37 H37         4.4774    3.4710   48.0042 H       1  ZINC000175255939    0.0800
     38 H38         2.1341    3.8396   48.7267 H       1  ZINC000175255939    0.0700
     39 H39         2.3802    2.1608   48.1889 H       1  ZINC000175255939    0.0800
     40 H40         0.3489    2.9117   52.1460 H       1  ZINC000175255939    0.4300
     41 H41        -2.1287    3.1204   53.2778 H       1  ZINC000175255939    0.1800
     42 H42        -4.5006    4.3225   53.2778 H       1  ZINC000175255939    0.1400
     43 H43        -6.6944    4.5224   54.3702 H       1  ZINC000175255939    0.1400
     44 H44        -9.6061    1.1626   53.3961 H       1  ZINC000175255939    0.1900
     45 H45        -7.7986    0.6717   52.8765 H       1  ZINC000175255939    0.1400
     46 H46        -5.6101    0.4663   51.7747 H       1  ZINC000175255939    0.1400
     47 H47         2.6118    0.3305   49.8737 H       1  ZINC000175255939    0.0900
     48 H48         2.5308    0.7052   51.6118 H       1  ZINC000175255939    0.0800
@<TRIPOS>BOND
     1     1     2    1
     2     1    31    1
     3     1    32    1
     4     1    33    1
     5     2     3    1
     6     3     4    2
     7     3     5    1
     8     5     6    1
     9     5    30    1
    10     5     7    1
    11     7     8    1
    12     7    34    1
    13     7    35    1
    14     8     9    1
    15     8    36    1
    16     8    37    1
    17     9    10    1
    18     9    38    1
    19     9    39    1
    20    10    11    1
    21    10    12    1
    22    10    30    1
    23    12    13    2
    24    12    14   am
    25    14    15    1
    26    14    40    1
    27    15    29    1
    28    15    16    2
    29    16    17    1
    30    16    41    1
    31    17    18    1
    32    17    28    2
    33    18    27   ar
    34    18    19   ar
    35    19    20   ar
    36    19    42    1
    37    20    21   ar
    38    20    43    1
    39    21    22    1
    40    21    26   ar
    41    22    23    1
    42    23    24    1
    43    23    25    1
    44    23    44    1
    45    26    27   ar
    46    26    45    1
    47    27    46    1
    48    28    29    1
    49    30    47    1
    50    30    48    1
@<TRIPOS>SUBSTRUCTURE
     1 ZINC000175255939        1 TEMP              0 ****  ****    0 ROOT


##########                                Name:    ZINC001369071670
##########                DOCK_Rotatable_Bonds:                   8
##########                         Heavy_Atoms:                  24
##########                    Molecular_Weight:             335.366
##########                DOCK_Rotatable_Bonds:                   8
##########                       Formal_Charge:        -2.90573e-07
##########                     HBond_Acceptors:                  10
##########                        HBond_Donors:                   1
##########                         Heavy_Atoms:                  24
##########                          Grid_Score:          -31.779972
##########                     Grid_vdw_energy:          -31.213243
##########                      Grid_es_energy:           -0.566728
##########           Internal_energy_repulsive:            6.694064

@<TRIPOS>MOLECULE
ZINC001369071670
 45 47 1 0 0
SMALL
USER_CHARGES


@<TRIPOS>ATOM
      1 C1          2.3427   -4.9747   63.2880 C.3     1  ZINC001369071670   -0.0800
      2 C2          1.5463   -3.9681   62.4982 C.2     1  ZINC001369071670    0.0000
      3 C3          1.8865   -2.6824   62.2511 C.2     1  ZINC001369071670   -0.2300
      4 C4          0.8065   -2.1854   61.4758 C.2     1  ZINC001369071670    0.2100
      5 O5          0.6735   -0.9317   60.9737 O.3     1  ZINC001369071670   -0.2600
      6 C6          1.8426   -0.1100   60.9624 C.3     1  ZINC001369071670    0.0400
      7 C7          1.5137    1.2230   60.3412 C.2     1  ZINC001369071670    0.5200
      8 O8          0.8553    2.0336   60.9581 O.2     1  ZINC001369071670   -0.5100
      9 N9          1.9514    1.5146   59.1003 N.am    1  ZINC001369071670   -0.7200
     10 C10         1.6332    2.8112   58.4972 C.3     1  ZINC001369071670    0.1500
     11 H11         0.8839    3.3200   59.1036 H       1  ZINC001369071670    0.0900
     12 C12         2.9000    3.6663   58.4282 C.3     1  ZINC001369071670   -0.1700
     13 C13         1.0856    2.5961   57.0847 C.3     1  ZINC001369071670   -0.1200
     14 C14        -0.3634    2.0774   57.0543 C.3     1  ZINC001369071670    0.0100
     15 N15        -0.5775    3.0332   55.9453 N.3     1  ZINC001369071670   -0.4800
     16 C16        -1.8646    3.7266   56.0890 C.3     1  ZINC001369071670    0.1000
     17 C17        -2.5871    3.7238   54.7665 C.2     1  ZINC001369071670    0.1900
     18 N18        -2.0470    3.5875   53.5801 N.2     1  ZINC001369071670   -0.3000
     19 N19        -2.9911    3.6377   52.7049 N.2     1  ZINC001369071670   -0.0700
     20 N20        -4.1195    3.8025   53.3022 N.2     1  ZINC001369071670   -0.0900
     21 N21        -3.9128    3.8550   54.5747 N.pl3   1  ZINC001369071670   -0.3000
     22 C22        -4.9289    4.0335   55.6148 C.3     1  ZINC001369071670    0.0800
     23 C23         0.5365    3.8771   56.4313 C.3     1  ZINC001369071670    0.0200
     24 N24        -0.0336   -3.1766   61.3420 N.2     1  ZINC001369071670   -0.4100
     25 O25         0.3650   -4.1735   61.8984 O.3     1  ZINC001369071670    0.1000
     26 H26         1.8099   -5.9254   63.3069 H       1  ZINC001369071670    0.0900
     27 H27         3.3177   -5.1138   62.8210 H       1  ZINC001369071670    0.1000
     28 H28         2.4764   -4.6129   64.3075 H       1  ZINC001369071670    0.1000
     29 H29         2.7740   -2.1560   62.5699 H       1  ZINC001369071670    0.1800
     30 H30         2.1902    0.0413   61.9845 H       1  ZINC001369071670    0.1000
     31 H31         2.6246   -0.5986   60.3813 H       1  ZINC001369071670    0.1000
     32 H32         2.4770    0.8659   58.6065 H       1  ZINC001369071670    0.4000
     33 H33         3.2900    3.8195   59.4345 H       1  ZINC001369071670    0.0600
     34 H34         3.6493    3.1575   57.8218 H       1  ZINC001369071670    0.0600
     35 H35         2.6633    4.6310   57.9794 H       1  ZINC001369071670    0.0700
     36 H36         1.7676    2.0352   56.4457 H       1  ZINC001369071670    0.1100
     37 H37        -0.4497    1.0325   56.7562 H       1  ZINC001369071670    0.1000
     38 H38        -0.9331    2.3130   57.9532 H       1  ZINC001369071670    0.0800
     39 H39        -2.4716    3.2147   56.8357 H       1  ZINC001369071670    0.1000
     40 H40        -1.6900    4.7549   56.4055 H       1  ZINC001369071670    0.0900
     41 H41        -5.2979    3.0585   55.9334 H       1  ZINC001369071670    0.1000
     42 H42        -4.4896    4.5519   56.4670 H       1  ZINC001369071670    0.1000
     43 H43        -5.7556    4.6227   55.2177 H       1  ZINC001369071670    0.1100
     44 H44         0.2300    4.6389   57.1480 H       1  ZINC001369071670    0.0800
     45 H45         1.1693    4.2701   55.6355 H       1  ZINC001369071670    0.1000
@<TRIPOS>BOND
     1     1     2    1
     2     1    26    1
     3     1    27    1
     4     1    28    1
     5     2    25    1
     6     2     3    2
     7     3     4    1
     8     3    29    1
     9     4     5    1
    10     4    24    2
    11     5     6    1
    12     6     7    1
    13     6    30    1
    14     6    31    1
    15     7     8    2
    16     7     9   am
    17     9    10    1
    18     9    32    1
    19    10    11    1
    20    10    12    1
    21    10    13    1
    22    12    33    1
    23    12    34    1
    24    12    35    1
    25    13    23    1
    26    13    14    1
    27    13    36    1
    28    14    15    1
    29    14    37    1
    30    14    38    1
    31    15    16    1
    32    15    23    1
    33    16    17    1
    34    16    39    1
    35    16    40    1
    36    17    21    1
    37    17    18    2
    38    18    19    1
    39    19    20    2
    40    20    21    1
    41    21    22    1
    42    22    41    1
    43    22    42    1
    44    22    43    1
    45    23    44    1
    46    23    45    1
    47    24    25    1
@<TRIPOS>SUBSTRUCTURE
     1 ZINC001369071670        1 TEMP              0 ****  ****    0 ROOT


##########                                Name:    ZINC001408567397
##########                DOCK_Rotatable_Bonds:                   9
##########                         Heavy_Atoms:                  24
##########                    Molecular_Weight:             336.434
##########                DOCK_Rotatable_Bonds:                   9
##########                       Formal_Charge:          -0.0199996
##########                     HBond_Acceptors:                   7
##########                        HBond_Donors:                   2
##########                         Heavy_Atoms:                  24
##########                          Grid_Score:          -31.743780
##########                     Grid_vdw_energy:          -31.001974
##########                      Grid_es_energy:           -0.741806
##########           Internal_energy_repulsive:           16.735415

@<TRIPOS>MOLECULE
ZINC001408567397
 52 53 1 0 0
SMALL
USER_CHARGES


@<TRIPOS>ATOM
      1 C1         -9.1218   -0.5525   53.7246 C.3     1  ZINC001408567397   -0.0800
      2 C2         -7.7929   -0.2991   53.0605 C.2     1  ZINC001408567397    0.0900
      3 N3         -7.0869   -1.1783   52.3969 N.2     1  ZINC001408567397   -0.2900
      4 N4         -5.9222   -0.5488   51.9392 N.pl3   1  ZINC001408567397   -0.4700
      5 C5         -5.9550    0.7359   52.3510 C.2     1  ZINC001408567397    0.1100
      6 C6         -4.9034    1.7817   52.0840 C.3     1  ZINC001408567397   -0.1000
      7 C7         -7.1041    0.9181   53.0420 C.2     1  ZINC001408567397   -0.2200
      8 C8         -7.5575    2.2032   53.6854 C.3     1  ZINC001408567397   -0.0600
      9 C9         -7.0677    2.2519   55.1098 C.2     1  ZINC001408567397    0.5100
     10 O10        -5.9651    2.6921   55.3572 O.2     1  ZINC001408567397   -0.5300
     11 N11        -7.8551    1.8062   56.1088 N.am    1  ZINC001408567397   -0.7300
     12 C12        -7.3797    1.8551   57.4936 C.3     1  ZINC001408567397    0.1100
     13 C13        -8.3933    1.1612   58.4056 C.3     1  ZINC001408567397    0.1000
     14 N14        -7.7838    0.9147   59.7148 N.am    1  ZINC001408567397   -0.6200
     15 C15        -7.1482   -0.3750   59.9957 C.3     1  ZINC001408567397    0.0700
     16 C16        -7.8078    1.8744   60.6608 C.2     1  ZINC001408567397    0.5100
     17 O17        -8.3353    2.9415   60.4287 O.2     1  ZINC001408567397   -0.5300
     18 C18        -7.1792    1.6215   62.0068 C.3     1  ZINC001408567397   -0.1300
     19 C19        -8.2245    1.0302   62.9548 C.3     1  ZINC001408567397   -0.1100
     20 H20        -8.6473    0.1276   62.5135 H       1  ZINC001408567397    0.0900
     21 C21        -7.5647    0.6849   64.2933 C.3     1  ZINC001408567397   -0.1200
     22 C22        -8.6349    0.1671   65.2591 C.3     1  ZINC001408567397   -0.1600
     23 C23        -9.7317    1.2246   65.4078 C.3     1  ZINC001408567397    0.0600
     24 O24       -10.2821    1.5221   64.1230 O.3     1  ZINC001408567397   -0.3800
     25 C25        -9.3380    2.0539   63.1913 C.3     1  ZINC001408567397    0.0600
     26 H26        -9.9258   -0.3531   53.0162 H       1  ZINC001408567397    0.0800
     27 H27        -9.1733   -1.5916   54.0496 H       1  ZINC001408567397    0.0700
     28 H28        -9.2274    0.1040   54.5883 H       1  ZINC001408567397    0.0800
     29 H29        -5.2166   -0.9632   51.4182 H       1  ZINC001408567397    0.4400
     30 H30        -5.1337    2.2990   51.1527 H       1  ZINC001408567397    0.0800
     31 H31        -4.8883    2.4995   52.9042 H       1  ZINC001408567397    0.0900
     32 H32        -3.9276    1.3030   52.0021 H       1  ZINC001408567397    0.0700
     33 H33        -7.1507    3.0497   53.1323 H       1  ZINC001408567397    0.1000
     34 H34        -8.6463    2.2510   53.6738 H       1  ZINC001408567397    0.1000
     35 H35        -8.7365    1.4529   55.9108 H       1  ZINC001408567397    0.4000
     36 H36        -6.4182    1.3467   57.5659 H       1  ZINC001408567397    0.0700
     37 H37        -7.2652    2.8943   57.8020 H       1  ZINC001408567397    0.0700
     38 H38        -9.2691    1.7987   58.5268 H       1  ZINC001408567397    0.0800
     39 H39        -8.6932    0.2126   57.9602 H       1  ZINC001408567397    0.0900
     40 H40        -6.0954   -0.3295   59.7174 H       1  ZINC001408567397    0.0600
     41 H41        -7.2335   -0.5982   61.0592 H       1  ZINC001408567397    0.0800
     42 H42        -7.6429   -1.1570   59.4197 H       1  ZINC001408567397    0.0800
     43 H43        -6.3519    0.9207   61.8957 H       1  ZINC001408567397    0.1000
     44 H44        -6.8073    2.5607   62.4164 H       1  ZINC001408567397    0.1000
     45 H45        -6.8091   -0.0854   64.1393 H       1  ZINC001408567397    0.0700
     46 H46        -7.0979    1.5770   64.7107 H       1  ZINC001408567397    0.0600
     47 H47        -9.0669   -0.7528   64.8649 H       1  ZINC001408567397    0.0700
     48 H48        -8.1837   -0.0291   66.2318 H       1  ZINC001408567397    0.0700
     49 H49       -10.5173    0.8442   66.0606 H       1  ZINC001408567397    0.0900
     50 H50        -9.3068    2.1307   65.8398 H       1  ZINC001408567397    0.0500
     51 H51        -8.9074    2.9709   63.5935 H       1  ZINC001408567397    0.0400
     52 H52        -9.8404    2.2710   62.2486 H       1  ZINC001408567397    0.1100
@<TRIPOS>BOND
     1     1     2    1
     2     1    26    1
     3     1    27    1
     4     1    28    1
     5     2     7    1
     6     2     3    2
     7     3     4    1
     8     4     5    1
     9     4    29    1
    10     5     6    1
    11     5     7    2
    12     6    30    1
    13     6    31    1
    14     6    32    1
    15     7     8    1
    16     8     9    1
    17     8    33    1
    18     8    34    1
    19     9    10    2
    20     9    11   am
    21    11    12    1
    22    11    35    1
    23    12    13    1
    24    12    36    1
    25    12    37    1
    26    13    14    1
    27    13    38    1
    28    13    39    1
    29    14    15    1
    30    14    16   am
    31    15    40    1
    32    15    41    1
    33    15    42    1
    34    16    17    2
    35    16    18    1
    36    18    19    1
    37    18    43    1
    38    18    44    1
    39    19    20    1
    40    19    25    1
    41    19    21    1
    42    21    22    1
    43    21    45    1
    44    21    46    1
    45    22    23    1
    46    22    47    1
    47    22    48    1
    48    23    24    1
    49    23    49    1
    50    23    50    1
    51    24    25    1
    52    25    51    1
    53    25    52    1
@<TRIPOS>SUBSTRUCTURE
     1 ZINC001408567397        1 TEMP              0 ****  ****    0 ROOT


##########                                Name:    ZINC000562561773
##########                DOCK_Rotatable_Bonds:                   6
##########                         Heavy_Atoms:                  26
##########                    Molecular_Weight:             371.466
##########                DOCK_Rotatable_Bonds:                   6
##########                       Formal_Charge:           0.0199999
##########                     HBond_Acceptors:                   9
##########                        HBond_Donors:                   0
##########                         Heavy_Atoms:                  26
##########                          Grid_Score:          -31.735506
##########                     Grid_vdw_energy:          -30.875298
##########                      Grid_es_energy:           -0.860208
##########           Internal_energy_repulsive:           11.546337

@<TRIPOS>MOLECULE
ZINC000562561773
 47 50 1 0 0
SMALL
USER_CHARGES


@<TRIPOS>ATOM
      1 C1        -12.8886   -2.1466   57.1461 C.3     1  ZINC000562561773   -0.1100
      2 C2        -11.7460   -1.5129   56.3950 C.ar    1  ZINC000562561773   -0.0400
      3 C3        -10.6902   -2.2916   55.9614 C.ar    1  ZINC000562561773   -0.1200
      4 C4         -9.6403   -1.7170   55.2727 C.ar    1  ZINC000562561773   -0.0700
      5 C5         -9.6428   -0.3481   55.0128 C.ar    1  ZINC000562561773   -0.0300
      6 C6         -8.5150    0.2707   54.2722 C.2     1  ZINC000562561773    0.2200
      7 N7         -7.8638    1.3525   54.6119 N.2     1  ZINC000562561773   -0.3700
      8 O8         -6.9993    1.5922   53.7958 O.3     1  ZINC000562561773    0.0900
      9 C9         -7.0114    0.6671   52.8310 C.2     1  ZINC000562561773    0.1900
     10 C10        -6.0952    0.6081   51.6360 C.3     1  ZINC000562561773   -0.0100
     11 C11        -5.7779    2.0290   51.1659 C.3     1  ZINC000562561773   -0.1200
     12 S12        -4.6464    2.8145   52.3403 S.3     1  ZINC000562561773    0.0600
     13 C13        -3.1014    2.3883   51.6083 C.2     1  ZINC000562561773    0.2100
     14 N14        -2.9188    1.5997   50.5714 N.2     1  ZINC000562561773   -0.3300
     15 N15        -1.6683    1.5010   50.2961 N.2     1  ZINC000562561773   -0.0300
     16 N16        -0.9711    2.2054   51.1203 N.2     1  ZINC000562561773   -0.0700
     17 N17        -1.8788    2.8154   52.0036 N.pl3   1  ZINC000562561773   -0.3600
     18 C18        -1.5680    3.7135   53.1185 C.3     1  ZINC000562561773    0.0800
     19 N19        -7.9647   -0.1822   53.1230 N.2     1  ZINC000562561773   -0.4600
     20 C20       -10.7059    0.4379   55.4491 C.ar    1  ZINC000562561773   -0.1100
     21 C21       -11.7596   -0.1475   56.1353 C.ar    1  ZINC000562561773    0.0800
     22 N22       -12.8289    0.6368   56.5748 N.3     1  ZINC000562561773   -0.4800
     23 C23       -12.3499    1.7775   57.3966 C.3     1  ZINC000562561773    0.0400
     24 C24       -13.5320    2.7775   57.3385 C.3     1  ZINC000562561773   -0.1200
     25 C25       -14.0439    2.6236   55.8879 C.3     1  ZINC000562561773   -0.1300
     26 C26       -13.5501    1.2380   55.4320 C.3     1  ZINC000562561773    0.0400
     27 H27       -13.6514   -2.4731   56.4392 H       1  ZINC000562561773    0.0700
     28 H28       -12.5221   -3.0059   57.7077 H       1  ZINC000562561773    0.0600
     29 H29       -13.3187   -1.4192   57.8345 H       1  ZINC000562561773    0.0800
     30 H30       -10.6861   -3.3529   56.1620 H       1  ZINC000562561773    0.1400
     31 H31        -8.8166   -2.3290   54.9357 H       1  ZINC000562561773    0.1400
     32 H32        -5.1703    0.1015   51.9118 H       1  ZINC000562561773    0.1200
     33 H33        -6.5835    0.0595   50.8306 H       1  ZINC000562561773    0.1300
     34 H34        -5.3109    1.9905   50.1818 H       1  ZINC000562561773    0.1100
     35 H35        -6.7002    2.6071   51.1080 H       1  ZINC000562561773    0.1100
     36 H36        -1.5615    4.7441   52.7640 H       1  ZINC000562561773    0.1000
     37 H37        -2.3232    3.6017   53.8966 H       1  ZINC000562561773    0.1000
     38 H38        -0.5880    3.4628   53.5247 H       1  ZINC000562561773    0.1100
     39 H39       -10.7121    1.4993   55.2503 H       1  ZINC000562561773    0.1300
     40 H40       -12.1639    1.4609   58.4230 H       1  ZINC000562561773    0.0900
     41 H41       -11.4528    2.2165   56.9598 H       1  ZINC000562561773    0.0500
     42 H42       -14.3073    2.5000   58.0526 H       1  ZINC000562561773    0.0800
     43 H43       -13.1857    3.7950   57.5195 H       1  ZINC000562561773    0.0700
     44 H44       -15.1330    2.6635   55.8648 H       1  ZINC000562561773    0.0800
     45 H45       -13.6224    3.4031   55.2533 H       1  ZINC000562561773    0.0700
     46 H46       -12.8758    1.3452   54.5823 H       1  ZINC000562561773    0.0500
     47 H47       -14.3998    0.6124   55.1586 H       1  ZINC000562561773    0.0800
@<TRIPOS>BOND
     1     1     2    1
     2     1    27    1
     3     1    28    1
     4     1    29    1
     5     2    21   ar
     6     2     3   ar
     7     3     4   ar
     8     3    30    1
     9     4     5   ar
    10     4    31    1
    11     5     6    1
    12     5    20   ar
    13     6    19    1
    14     6     7    2
    15     7     8    1
    16     8     9    1
    17     9    10    1
    18     9    19    2
    19    10    11    1
    20    10    32    1
    21    10    33    1
    22    11    12    1
    23    11    34    1
    24    11    35    1
    25    12    13    1
    26    13    17    1
    27    13    14    2
    28    14    15    1
    29    15    16    2
    30    16    17    1
    31    17    18    1
    32    18    36    1
    33    18    37    1
    34    18    38    1
    35    20    21   ar
    36    20    39    1
    37    21    22    1
    38    22    26    1
    39    22    23    1
    40    23    24    1
    41    23    40    1
    42    23    41    1
    43    24    25    1
    44    24    42    1
    45    24    43    1
    46    25    26    1
    47    25    44    1
    48    25    45    1
    49    26    46    1
    50    26    47    1
@<TRIPOS>SUBSTRUCTURE
     1 ZINC000562561773        1 TEMP              0 ****  ****    0 ROOT


##########                                Name:    ZINC000182044395
##########                DOCK_Rotatable_Bonds:                   8
##########                         Heavy_Atoms:                  28
##########                    Molecular_Weight:             398.889
##########                DOCK_Rotatable_Bonds:                   8
##########                       Formal_Charge:          -0.0399999
##########                     HBond_Acceptors:                   6
##########                        HBond_Donors:                   2
##########                         Heavy_Atoms:                  28
##########                          Grid_Score:          -31.686018
##########                     Grid_vdw_energy:          -31.523485
##########                      Grid_es_energy:           -0.162533
##########           Internal_energy_repulsive:           18.079321

@<TRIPOS>MOLECULE
ZINC000182044395
 51 53 1 0 0
SMALL
USER_CHARGES


@<TRIPOS>ATOM
      1 C1         -0.3026    3.8741   55.4343 C.3     1  ZINC000182044395   -0.1800
      2 C2         -0.7560    4.7057   54.2327 C.3     1  ZINC000182044395    0.0800
      3 N3         -1.0770    3.8145   53.1151 N.pl3   1  ZINC000182044395   -0.4800
      4 C4         -2.3621    3.5216   52.8774 C.2     1  ZINC000182044395    0.2500
      5 C5         -2.7484    2.6913   51.8457 C.2     1  ZINC000182044395   -0.3500
      6 C6         -4.1712    2.3944   51.6174 C.2     1  ZINC000182044395    0.5900
      7 O7         -4.5143    1.7939   50.6167 O.2     1  ZINC000182044395   -0.5600
      8 N8         -5.0945    2.7878   52.5170 N.am    1  ZINC000182044395   -0.7200
      9 C9         -6.5113    2.4922   52.2897 C.3     1  ZINC000182044395    0.1100
     10 H10        -6.7282    2.5517   51.2232 H       1  ZINC000182044395    0.0900
     11 C11        -6.8260    1.0833   52.7965 C.3     1  ZINC000182044395   -0.1600
     12 C12        -7.3715    3.5091   53.0426 C.3     1  ZINC000182044395    0.1100
     13 H13        -8.2726    3.0197   53.4122 H       1  ZINC000182044395    0.1100
     14 O14        -6.6303    4.0371   54.1443 O.3     1  ZINC000182044395   -0.5500
     15 C15        -7.7605    4.6474   52.0972 C.3     1  ZINC000182044395   -0.1100
     16 C16        -9.1260    4.3765   51.5200 C.ar    1  ZINC000182044395   -0.0800
     17 C17       -10.2576    4.6391   52.2693 C.ar    1  ZINC000182044395   -0.1000
     18 C18       -11.5101    4.3902   51.7400 C.ar    1  ZINC000182044395   -0.1200
     19 C19       -11.6311    3.8796   50.4611 C.ar    1  ZINC000182044395   -0.1200
     20 C20       -10.4993    3.6126   49.7136 C.ar    1  ZINC000182044395   -0.1200
     21 C21        -9.2468    3.8651   50.2415 C.ar    1  ZINC000182044395   -0.1200
     22 C22        -1.7135    2.1026   50.9812 C.2     1  ZINC000182044395    0.4400
     23 O23        -2.0029    1.3591   50.0602 O.2     1  ZINC000182044395   -0.4900
     24 C24        -0.3113    2.4548   51.2732 C.ar    1  ZINC000182044395   -0.1800
     25 C25         0.7351    1.9482   50.5031 C.ar    1  ZINC000182044395   -0.0200
     26 C26         2.0343    2.2935   50.8085 C.ar    1  ZINC000182044395   -0.0700
     27 Cl27        3.3425    1.6663   49.8550 Cl      1  ZINC000182044395   -0.0500
     28 C28         2.3009    3.1412   51.8754 C.ar    1  ZINC000182044395   -0.0500
     29 C29         1.2762    3.6490   52.6436 C.ar    1  ZINC000182044395   -0.1600
     30 C30        -0.0435    3.3130   52.3533 C.ar    1  ZINC000182044395    0.1900
     31 H31         0.5819    3.2972   55.1638 H       1  ZINC000182044395    0.0700
     32 H32        -0.0638    4.5371   56.2658 H       1  ZINC000182044395    0.0800
     33 H33        -1.1029    3.1953   55.7290 H       1  ZINC000182044395    0.0700
     34 H34         0.0443    5.3845   53.9379 H       1  ZINC000182044395    0.1000
     35 H35        -1.6405    5.2825   54.5031 H       1  ZINC000182044395    0.1100
     36 H36        -3.1216    3.9500   53.5147 H       1  ZINC000182044395    0.1800
     37 H37        -4.8209    3.2666   53.3150 H       1  ZINC000182044395    0.4100
     38 H38        -6.2131    0.3590   52.2601 H       1  ZINC000182044395    0.0600
     39 H39        -6.6091    1.0239   53.8630 H       1  ZINC000182044395    0.0600
     40 H40        -7.8802    0.8635   52.6273 H       1  ZINC000182044395    0.0600
     41 H41        -5.6963    4.1956   53.9501 H       1  ZINC000182044395    0.3700
     42 H42        -7.0314    4.7143   51.2897 H       1  ZINC000182044395    0.0800
     43 H43        -7.7791    5.5875   52.6487 H       1  ZINC000182044395    0.0800
     44 H44       -10.1631    5.0384   53.2683 H       1  ZINC000182044395    0.1200
     45 H45       -12.3942    4.5949   52.3256 H       1  ZINC000182044395    0.1200
     46 H46       -12.6096    3.6852   50.0476 H       1  ZINC000182044395    0.1200
     47 H47       -10.5937    3.2094   48.7161 H       1  ZINC000182044395    0.1200
     48 H48        -8.3628    3.6598   49.6561 H       1  ZINC000182044395    0.1200
     49 H49         0.5290    1.2892   49.6726 H       1  ZINC000182044395    0.1500
     50 H50         3.3224    3.4057   52.1053 H       1  ZINC000182044395    0.1500
     51 H51         1.4964    4.3077   53.4706 H       1  ZINC000182044395    0.1500
@<TRIPOS>BOND
     1     1     2    1
     2     1    31    1
     3     1    32    1
     4     1    33    1
     5     2     3    1
     6     2    34    1
     7     2    35    1
     8     3    30    1
     9     3     4    1
    10     4     5    2
    11     4    36    1
    12     5     6    1
    13     5    22    1
    14     6     7    2
    15     6     8   am
    16     8     9    1
    17     8    37    1
    18     9    10    1
    19     9    11    1
    20     9    12    1
    21    11    38    1
    22    11    39    1
    23    11    40    1
    24    12    13    1
    25    12    14    1
    26    12    15    1
    27    14    41    1
    28    15    16    1
    29    15    42    1
    30    15    43    1
    31    16    21   ar
    32    16    17   ar
    33    17    18   ar
    34    17    44    1
    35    18    19   ar
    36    18    45    1
    37    19    20   ar
    38    19    46    1
    39    20    21   ar
    40    20    47    1
    41    21    48    1
    42    22    23    2
    43    22    24    1
    44    24    30   ar
    45    24    25   ar
    46    25    26   ar
    47    25    49    1
    48    26    27    1
    49    26    28   ar
    50    28    29   ar
    51    28    50    1
    52    29    30   ar
    53    29    51    1
@<TRIPOS>SUBSTRUCTURE
     1 ZINC000182044395        1 TEMP              0 ****  ****    0 ROOT


##########                                Name:    ZINC000477589488
##########                DOCK_Rotatable_Bonds:                   6
##########                         Heavy_Atoms:                  32
##########                    Molecular_Weight:             423.517
##########                DOCK_Rotatable_Bonds:                   6
##########                       Formal_Charge:        -8.19564e-07
##########                     HBond_Acceptors:                   6
##########                        HBond_Donors:                   1
##########                         Heavy_Atoms:                  32
##########                          Grid_Score:          -31.663759
##########                     Grid_vdw_energy:          -31.382315
##########                      Grid_es_energy:           -0.281445
##########           Internal_energy_repulsive:           20.055395

@<TRIPOS>MOLECULE
ZINC000477589488
 57 61 1 0 0
SMALL
USER_CHARGES


@<TRIPOS>ATOM
      1 O1         -7.9423    4.0564   57.2965 O.2     1  ZINC000477589488   -0.5800
      2 C2         -7.5832    2.9113   57.4920 C.2     1  ZINC000477589488    0.7100
      3 N3         -7.6903    1.9943   56.5102 N.am    1  ZINC000477589488   -0.7400
      4 C4         -8.2452    2.3758   55.2091 C.3     1  ZINC000477589488    0.2500
      5 H5         -8.0363    3.4287   55.0196 H       1  ZINC000477589488    0.1100
      6 C6         -9.7356    2.1523   55.2135 C.ar    1  ZINC000477589488   -0.0900
      7 C7        -10.5412    2.8477   54.3312 C.ar    1  ZINC000477589488   -0.1000
      8 C8        -11.9083    2.6427   54.3351 C.ar    1  ZINC000477589488   -0.1200
      9 C9        -12.4696    1.7419   55.2210 C.ar    1  ZINC000477589488   -0.1200
     10 C10       -11.6638    1.0459   56.1025 C.ar    1  ZINC000477589488   -0.1200
     11 C11       -10.2962    1.2477   56.0956 C.ar    1  ZINC000477589488   -0.1000
     12 C12        -7.6145    1.5362   54.1282 C.ar    1  ZINC000477589488   -0.0700
     13 C13        -6.4417    1.9723   53.4892 C.ar    1  ZINC000477589488   -0.0400
     14 C14        -5.8307    3.1894   53.8363 C.ar    1  ZINC000477589488   -0.1100
     15 C15        -4.6951    3.5795   53.1959 C.ar    1  ZINC000477589488   -0.1100
     16 C16        -4.1265    2.7898   52.1979 C.ar    1  ZINC000477589488   -0.1100
     17 C17        -4.6904    1.6056   51.8351 C.ar    1  ZINC000477589488   -0.1100
     18 C18        -5.8632    1.1688   52.4747 C.ar    1  ZINC000477589488   -0.0500
     19 C19        -6.4739   -0.0480   52.1277 C.ar    1  ZINC000477589488   -0.1000
     20 C20        -7.6091   -0.4388   52.7692 C.ar    1  ZINC000477589488   -0.1100
     21 C21        -8.1750    0.3485   53.7699 C.ar    1  ZINC000477589488   -0.1100
     22 N22        -7.0727    2.5604   58.6890 N.am    1  ZINC000477589488   -0.6300
     23 C23        -6.9524    3.5438   59.7761 C.3     1  ZINC000477589488    0.1300
     24 C24        -7.5923    2.9552   61.0380 C.3     1  ZINC000477589488    0.0500
     25 N25        -6.9958    1.6426   61.3190 N.3     1  ZINC000477589488   -0.4700
     26 C26        -7.4318    1.1489   62.5436 C.ar    1  ZINC000477589488    0.2500
     27 C27        -6.7262    1.4443   63.7094 C.ar    1  ZINC000477589488   -0.1300
     28 C28        -7.2023    0.9280   64.9044 C.ar    1  ZINC000477589488   -0.0900
     29 C29        -8.3506    0.1497   64.8674 C.ar    1  ZINC000477589488    0.0200
     30 N30        -8.9552   -0.0793   63.7185 N.ar    1  ZINC000477589488   -0.2200
     31 N31        -8.5232    0.4000   62.6090 N.ar    1  ZINC000477589488   -0.2800
     32 C32        -7.2741    0.6882   60.2375 C.3     1  ZINC000477589488    0.0400
     33 C33        -6.6267    1.1824   58.9448 C.3     1  ZINC000477589488    0.1200
     34 H34        -7.4001    1.0818   56.6649 H       1  ZINC000477589488    0.3900
     35 H35       -10.1028    3.5513   53.6392 H       1  ZINC000477589488    0.1100
     36 H36       -12.5379    3.1864   53.6464 H       1  ZINC000477589488    0.1200
     37 H37       -13.5377    1.5823   55.2245 H       1  ZINC000477589488    0.1200
     38 H38       -12.1024    0.3425   56.7948 H       1  ZINC000477589488    0.1200
     39 H39        -9.6666    0.7040   56.7844 H       1  ZINC000477589488    0.1200
     40 H40        -6.2604    3.8121   54.6071 H       1  ZINC000477589488    0.1300
     41 H41        -4.2276    4.5152   53.4645 H       1  ZINC000477589488    0.1300
     42 H42        -3.2251    3.1228   51.7052 H       1  ZINC000477589488    0.1300
     43 H43        -4.2389    1.0045   51.0596 H       1  ZINC000477589488    0.1300
     44 H44        -6.0451   -0.6698   51.3558 H       1  ZINC000477589488    0.1300
     45 H45        -8.0767   -1.3745   52.5003 H       1  ZINC000477589488    0.1300
     46 H46        -9.0759    0.0151   54.2634 H       1  ZINC000477589488    0.1200
     47 H47        -5.8996    3.7550   59.9638 H       1  ZINC000477589488    0.0800
     48 H48        -7.4691    4.4623   59.4977 H       1  ZINC000477589488    0.1100
     49 H49        -7.4154    3.6232   61.8810 H       1  ZINC000477589488    0.1000
     50 H50        -8.6651    2.8415   60.8824 H       1  ZINC000477589488    0.0600
     51 H51        -5.8364    2.0557   63.6820 H       1  ZINC000477589488    0.1500
     52 H52        -6.6942    1.1252   65.8368 H       1  ZINC000477589488    0.1500
     53 H53        -8.7489   -0.2687   65.7798 H       1  ZINC000477589488    0.1700
     54 H54        -6.8663   -0.2880   60.4999 H       1  ZINC000477589488    0.1000
     55 H55        -8.3513    0.6059   60.0932 H       1  ZINC000477589488    0.0600
     56 H56        -6.9254    0.5395   58.1168 H       1  ZINC000477589488    0.0800
     57 H57        -5.5419    1.1684   59.0500 H       1  ZINC000477589488    0.0900
@<TRIPOS>BOND
     1     1     2    2
     2     2     3   am
     3     2    22   am
     4     3     4    1
     5     3    34    1
     6     4     5    1
     7     4     6    1
     8     4    12    1
     9     6    11   ar
    10     6     7   ar
    11     7     8   ar
    12     7    35    1
    13     8     9   ar
    14     8    36    1
    15     9    10   ar
    16     9    37    1
    17    10    11   ar
    18    10    38    1
    19    11    39    1
    20    12    21   ar
    21    12    13   ar
    22    13    18   ar
    23    13    14   ar
    24    14    15   ar
    25    14    40    1
    26    15    16   ar
    27    15    41    1
    28    16    17   ar
    29    16    42    1
    30    17    18   ar
    31    17    43    1
    32    18    19   ar
    33    19    20   ar
    34    19    44    1
    35    20    21   ar
    36    20    45    1
    37    21    46    1
    38    22    33    1
    39    22    23    1
    40    23    24    1
    41    23    47    1
    42    23    48    1
    43    24    25    1
    44    24    49    1
    45    24    50    1
    46    25    26    1
    47    25    32    1
    48    26    31   ar
    49    26    27   ar
    50    27    28   ar
    51    27    51    1
    52    28    29   ar
    53    28    52    1
    54    29    30   ar
    55    29    53    1
    56    30    31   ar
    57    32    33    1
    58    32    54    1
    59    32    55    1
    60    33    56    1
    61    33    57    1
@<TRIPOS>SUBSTRUCTURE
     1 ZINC000477589488        1 TEMP              0 ****  ****    0 ROOT


##########                                Name:    ZINC001087843226
##########                DOCK_Rotatable_Bonds:                   6
##########                         Heavy_Atoms:                  27
##########                    Molecular_Weight:             368.479
##########                DOCK_Rotatable_Bonds:                   6
##########                       Formal_Charge:        -4.47035e-07
##########                     HBond_Acceptors:                   6
##########                        HBond_Donors:                   1
##########                         Heavy_Atoms:                  27
##########                          Grid_Score:          -31.654398
##########                     Grid_vdw_energy:          -30.648788
##########                      Grid_es_energy:           -1.005610
##########           Internal_energy_repulsive:           33.834095

@<TRIPOS>MOLECULE
ZINC001087843226
 55 58 1 0 0
SMALL
USER_CHARGES


@<TRIPOS>ATOM
      1 C1        -12.7001    1.0260   53.9131 C.3     1  ZINC001087843226   -0.1500
      2 C2        -13.1732    0.1873   55.1020 C.3     1  ZINC001087843226   -0.1500
      3 C3        -11.9812   -0.1351   56.0054 C.3     1  ZINC001087843226    0.0700
      4 H4        -11.4829    0.7871   56.3046 H       1  ZINC001087843226    0.1000
      5 C5        -10.9881   -1.0497   55.2579 C.3     1  ZINC001087843226    0.1300
      6 H6        -11.4918   -1.5939   54.4591 H       1  ZINC001087843226    0.1000
      7 N7         -9.8673   -0.2712   54.7248 N.am    1  ZINC001087843226   -0.7200
      8 C8         -9.1519   -0.7447   53.6855 C.2     1  ZINC001087843226    0.5600
      9 O9         -9.4355   -1.8183   53.1912 O.2     1  ZINC001087843226   -0.5300
     10 C10        -8.0219    0.0419   53.1464 C.ar    1  ZINC001087843226   -0.1400
     11 C11        -6.9459   -0.6066   52.5411 C.ar    1  ZINC001087843226   -0.0800
     12 C12        -5.8944    0.1330   52.0400 C.ar    1  ZINC001087843226   -0.1300
     13 C13        -5.9082    1.5116   52.1376 C.ar    1  ZINC001087843226   -0.0400
     14 C14        -4.7555    2.3114   51.5873 C.3     1  ZINC001087843226   -0.1200
     15 C15        -6.9742    2.1647   52.7374 C.ar    1  ZINC001087843226   -0.1100
     16 C16        -8.0336    1.4369   53.2378 C.ar    1  ZINC001087843226   -0.0300
     17 C17        -9.0610    2.3722   53.8383 C.3     1  ZINC001087843226   -0.0800
     18 C18        -8.3184    3.7100   54.0421 C.3     1  ZINC001087843226   -0.1200
     19 C19        -7.2168    3.6423   52.9610 C.3     1  ZINC001087843226   -0.0800
     20 C20       -10.5070   -2.0229   56.3662 C.3     1  ZINC001087843226   -0.1400
     21 C21       -11.7959   -2.2015   57.2067 C.3     1  ZINC001087843226    0.0400
     22 N22       -12.4405   -0.8673   57.1999 N.3     1  ZINC001087843226   -0.5100
     23 C23       -13.9044   -0.9898   57.2115 C.3     1  ZINC001087843226    0.1100
     24 C24       -14.3384   -1.7073   58.4637 C.2     1  ZINC001087843226    0.0800
     25 N25       -14.0468   -1.3440   59.6768 N.2     1  ZINC001087843226   -0.2700
     26 O26       -14.6444   -2.2830   60.5566 O.3     1  ZINC001087843226    0.0300
     27 N27       -15.3131   -3.2294   59.7377 N.2     1  ZINC001087843226   -0.2800
     28 C28       -15.1288   -2.8731   58.5017 C.2     1  ZINC001087843226    0.0900
     29 C29       -15.6674   -3.5998   57.2963 C.3     1  ZINC001087843226   -0.0900
     30 H30       -13.5353    1.1975   53.2342 H       1  ZINC001087843226    0.0600
     31 H31       -12.3208    1.9829   54.2716 H       1  ZINC001087843226    0.0600
     32 H32       -11.9069    0.4951   53.3866 H       1  ZINC001087843226    0.0600
     33 H33       -13.9174    0.7471   55.6685 H       1  ZINC001087843226    0.0800
     34 H34       -13.6153   -0.7406   54.7391 H       1  ZINC001087843226    0.0700
     35 H35        -9.6402    0.5851   55.1201 H       1  ZINC001087843226    0.4000
     36 H36        -6.9354   -1.6838   52.4653 H       1  ZINC001087843226    0.1300
     37 H37        -5.0593   -0.3661   51.5711 H       1  ZINC001087843226    0.1300
     38 H38        -4.9531    2.5638   50.5455 H       1  ZINC001087843226    0.0800
     39 H39        -4.6389    3.2269   52.1672 H       1  ZINC001087843226    0.0700
     40 H40        -3.8410    1.7219   51.6511 H       1  ZINC001087843226    0.0700
     41 H41        -9.8982    2.5049   53.1529 H       1  ZINC001087843226    0.0800
     42 H42        -9.4119    1.9848   54.7948 H       1  ZINC001087843226    0.0900
     43 H43        -8.9841    4.5541   53.8620 H       1  ZINC001087843226    0.0800
     44 H44        -7.8838    3.7638   55.0402 H       1  ZINC001087843226    0.0700
     45 H45        -6.3057    4.1217   53.3190 H       1  ZINC001087843226    0.0800
     46 H46        -7.5592    4.1177   52.0419 H       1  ZINC001087843226    0.0800
     47 H47       -10.1846   -2.9724   55.9390 H       1  ZINC001087843226    0.0800
     48 H48        -9.7117   -1.5742   56.9614 H       1  ZINC001087843226    0.0800
     49 H49       -12.4494   -2.9426   56.7463 H       1  ZINC001087843226    0.0600
     50 H50       -11.5463   -2.4957   58.2261 H       1  ZINC001087843226    0.0800
     51 H51       -14.3523    0.0036   57.1882 H       1  ZINC001087843226    0.1200
     52 H52       -14.2286   -1.5552   56.3378 H       1  ZINC001087843226    0.0700
     53 H53       -16.6068   -3.1421   56.9860 H       1  ZINC001087843226    0.1000
     54 H54       -14.9460   -3.5367   56.4817 H       1  ZINC001087843226    0.0900
     55 H55       -15.8391   -4.6459   57.5495 H       1  ZINC001087843226    0.0900
@<TRIPOS>BOND
     1     1     2    1
     2     1    30    1
     3     1    31    1
     4     1    32    1
     5     2     3    1
     6     2    33    1
     7     2    34    1
     8     3     4    1
     9     3    22    1
    10     3     5    1
    11     5     6    1
    12     5     7    1
    13     5    20    1
    14     7     8   am
    15     7    35    1
    16     8     9    2
    17     8    10    1
    18    10    16   ar
    19    10    11   ar
    20    11    12   ar
    21    11    36    1
    22    12    13   ar
    23    12    37    1
    24    13    14    1
    25    13    15   ar
    26    14    38    1
    27    14    39    1
    28    14    40    1
    29    15    19    1
    30    15    16   ar
    31    16    17    1
    32    17    18    1
    33    17    41    1
    34    17    42    1
    35    18    19    1
    36    18    43    1
    37    18    44    1
    38    19    45    1
    39    19    46    1
    40    20    21    1
    41    20    47    1
    42    20    48    1
    43    21    22    1
    44    21    49    1
    45    21    50    1
    46    22    23    1
    47    23    24    1
    48    23    51    1
    49    23    52    1
    50    24    28    1
    51    24    25    2
    52    25    26    1
    53    26    27    1
    54    27    28    2
    55    28    29    1
    56    29    53    1
    57    29    54    1
    58    29    55    1
@<TRIPOS>SUBSTRUCTURE
     1 ZINC001087843226        1 TEMP              0 ****  ****    0 ROOT


##########                                Name:    ZINC000046390957
##########                DOCK_Rotatable_Bonds:                   9
##########                         Heavy_Atoms:                  29
##########                    Molecular_Weight:             408.521
##########                DOCK_Rotatable_Bonds:                   9
##########                       Formal_Charge:           0.0100005
##########                     HBond_Acceptors:                   6
##########                        HBond_Donors:                   1
##########                         Heavy_Atoms:                  29
##########                          Grid_Score:          -31.653267
##########                     Grid_vdw_energy:          -31.878857
##########                      Grid_es_energy:            0.225590
##########           Internal_energy_repulsive:           12.065171

@<TRIPOS>MOLECULE
ZINC000046390957
 53 55 1 0 0
SMALL
USER_CHARGES


@<TRIPOS>ATOM
      1 C1         -5.3116    3.7533   57.5208 C.3     1  ZINC000046390957   -0.1100
      2 C2         -6.4378    3.1996   58.3552 C.ar    1  ZINC000046390957   -0.0600
      3 C3         -6.6293    3.6527   59.6458 C.ar    1  ZINC000046390957   -0.1200
      4 C4         -7.6620    3.1449   60.4124 C.ar    1  ZINC000046390957   -0.1100
      5 C5         -8.5065    2.1827   59.8897 C.ar    1  ZINC000046390957   -0.1200
      6 C6         -8.3207    1.7257   58.5997 C.ar    1  ZINC000046390957   -0.0800
      7 C7         -9.2417    0.6774   58.0307 C.3     1  ZINC000046390957   -0.1100
      8 C8         -7.2876    2.2375   57.8255 C.ar    1  ZINC000046390957    0.1300
      9 N9         -7.0969    1.7771   56.5179 N.am    1  ZINC000046390957   -0.6800
     10 C10        -7.5925    2.4767   55.4781 C.2     1  ZINC000046390957    0.5200
     11 O11        -8.2040    3.5055   55.6757 O.2     1  ZINC000046390957   -0.4900
     12 C12        -7.3872    1.9809   54.0699 C.3     1  ZINC000046390957    0.0700
     13 H13        -7.5209    0.8995   54.0424 H       1  ZINC000046390957    0.1100
     14 C14        -8.4065    2.6445   53.1419 C.3     1  ZINC000046390957   -0.1700
     15 O15        -6.0439    2.3138   53.6305 O.3     1  ZINC000046390957   -0.3300
     16 C16        -5.4981    1.5275   52.6896 C.2     1  ZINC000046390957    0.4700
     17 O17        -5.5801    0.3258   52.7845 O.2     1  ZINC000046390957   -0.4800
     18 C18        -4.7830    2.1435   51.5147 C.3     1  ZINC000046390957   -0.0300
     19 C19        -3.4015    2.5734   51.9365 C.2     1  ZINC000046390957    0.0800
     20 C20        -2.2933    2.1489   51.3220 C.2     1  ZINC000046390957   -0.2500
     21 S21        -0.9106    2.8876   52.1263 S.3     1  ZINC000046390957    0.1300
     22 C22        -1.9602    3.6937   53.2089 C.2     1  ZINC000046390957    0.0600
     23 C23        -1.5163    4.6157   54.3152 C.3     1  ZINC000046390957    0.0000
     24 C24        -0.8077    3.8182   55.3797 C.ar    1  ZINC000046390957   -0.0900
     25 C25        -1.5093    3.3517   56.4757 C.ar    1  ZINC000046390957   -0.0900
     26 C26        -0.8594    2.6203   57.4521 C.ar    1  ZINC000046390957   -0.1200
     27 C27         0.4919    2.3549   57.3324 C.ar    1  ZINC000046390957   -0.1200
     28 C28         1.1933    2.8205   56.2359 C.ar    1  ZINC000046390957   -0.1200
     29 C29         0.5425    3.5484   55.2573 C.ar    1  ZINC000046390957   -0.1100
     30 N30        -3.1877    3.4028   52.9378 N.2     1  ZINC000046390957   -0.4500
     31 H31        -5.6271    4.6892   57.0597 H       1  ZINC000046390957    0.0800
     32 H32        -4.4444    3.9351   58.1556 H       1  ZINC000046390957    0.0700
     33 H33        -5.0487    3.0358   56.7434 H       1  ZINC000046390957    0.0600
     34 H34        -5.9714    4.4042   60.0569 H       1  ZINC000046390957    0.1300
     35 H35        -7.8093    3.5003   61.4215 H       1  ZINC000046390957    0.1300
     36 H36        -9.3120    1.7877   60.4910 H       1  ZINC000046390957    0.1300
     37 H37       -10.0868    1.1627   57.5424 H       1  ZINC000046390957    0.0700
     38 H38        -8.6994    0.0735   57.3031 H       1  ZINC000046390957    0.0600
     39 H39        -9.6051    0.0378   58.8350 H       1  ZINC000046390957    0.0700
     40 H40        -6.6080    0.9544   56.3599 H       1  ZINC000046390957    0.4100
     41 H41        -9.4150    2.3945   53.4717 H       1  ZINC000046390957    0.0800
     42 H42        -8.2729    3.7260   53.1693 H       1  ZINC000046390957    0.0800
     43 H43        -8.2581    2.2859   52.1232 H       1  ZINC000046390957    0.0800
     44 H44        -4.7062    1.4109   50.7112 H       1  ZINC000046390957    0.1200
     45 H45        -5.3419    3.0108   51.1633 H       1  ZINC000046390957    0.1300
     46 H46        -2.2524    1.4725   50.4811 H       1  ZINC000046390957    0.1800
     47 H47        -0.8372    5.3669   53.9117 H       1  ZINC000046390957    0.1000
     48 H48        -2.3865    5.1082   54.7490 H       1  ZINC000046390957    0.1000
     49 H49        -2.5651    3.5591   56.5691 H       1  ZINC000046390957    0.1200
     50 H50        -1.4073    2.2565   58.3087 H       1  ZINC000046390957    0.1200
     51 H51         0.9998    1.7839   58.0957 H       1  ZINC000046390957    0.1200
     52 H52         2.2491    2.6134   56.1425 H       1  ZINC000046390957    0.1200
     53 H53         1.0905    3.9122   54.4008 H       1  ZINC000046390957    0.1200
@<TRIPOS>BOND
     1     1     2    1
     2     1    31    1
     3     1    32    1
     4     1    33    1
     5     2     8   ar
     6     2     3   ar
     7     3     4   ar
     8     3    34    1
     9     4     5   ar
    10     4    35    1
    11     5     6   ar
    12     5    36    1
    13     6     7    1
    14     6     8   ar
    15     7    37    1
    16     7    38    1
    17     7    39    1
    18     8     9    1
    19     9    10   am
    20     9    40    1
    21    10    11    2
    22    10    12    1
    23    12    13    1
    24    12    14    1
    25    12    15    1
    26    14    41    1
    27    14    42    1
    28    14    43    1
    29    15    16    1
    30    16    17    2
    31    16    18    1
    32    18    19    1
    33    18    44    1
    34    18    45    1
    35    19    30    1
    36    19    20    2
    37    20    21    1
    38    20    46    1
    39    21    22    1
    40    22    23    1
    41    22    30    2
    42    23    24    1
    43    23    47    1
    44    23    48    1
    45    24    29   ar
    46    24    25   ar
    47    25    26   ar
    48    25    49    1
    49    26    27   ar
    50    26    50    1
    51    27    28   ar
    52    27    51    1
    53    28    29   ar
    54    28    52    1
    55    29    53    1
@<TRIPOS>SUBSTRUCTURE
     1 ZINC000046390957        1 TEMP              0 ****  ****    0 ROOT


##########                                Name:    ZINC000442010511
##########                DOCK_Rotatable_Bonds:                  11
##########                         Heavy_Atoms:                  31
##########                    Molecular_Weight:             422.481
##########                DOCK_Rotatable_Bonds:                  11
##########                       Formal_Charge:          -0.0200005
##########                     HBond_Acceptors:                   7
##########                        HBond_Donors:                   2
##########                         Heavy_Atoms:                  31
##########                          Grid_Score:          -31.647581
##########                     Grid_vdw_energy:          -31.201609
##########                      Grid_es_energy:           -0.445972
##########           Internal_energy_repulsive:            8.703586

@<TRIPOS>MOLECULE
ZINC000442010511
 57 59 1 0 0
SMALL
USER_CHARGES


@<TRIPOS>ATOM
      1 C1        -13.1060   -1.5620   56.7071 C.3     1  ZINC000442010511   -0.1500
      2 C2        -14.5595   -1.5067   57.1816 C.3     1  ZINC000442010511   -0.0500
      3 C3        -14.5942   -1.4268   58.6861 C.2     1  ZINC000442010511    0.0000
      4 C4        -14.7219   -2.4692   59.5264 C.2     1  ZINC000442010511   -0.2100
      5 C5        -14.7066   -1.9421   60.8383 C.2     1  ZINC000442010511   -0.1900
      6 C6        -14.5704   -0.6091   60.7210 C.2     1  ZINC000442010511   -0.0300
      7 C7        -14.5040    0.3737   61.8615 C.3     1  ZINC000442010511    0.2400
      8 H8        -14.8514    1.3492   61.5212 H       1  ZINC000442010511    0.1400
      9 C9        -15.3937   -0.1134   63.0069 C.3     1  ZINC000442010511    0.0500
     10 O10       -15.3673    0.8415   64.0698 O.3     1  ZINC000442010511   -0.3800
     11 C11       -16.1693    0.4801   65.1960 C.3     1  ZINC000442010511    0.0300
     12 N12       -13.1207    0.4846   62.3309 N.am    1  ZINC000442010511   -0.6900
     13 C13       -12.6120    1.6911   62.6504 C.2     1  ZINC000442010511    0.5200
     14 O14       -13.2996    2.6859   62.5480 O.2     1  ZINC000442010511   -0.5100
     15 C15       -11.2025    1.8038   63.1306 C.2     1  ZINC000442010511    0.5100
     16 O16       -10.6905    2.8971   63.2583 O.2     1  ZINC000442010511   -0.5000
     17 N17       -10.4989    0.6920   63.4222 N.am    1  ZINC000442010511   -0.6300
     18 C18        -9.1789    0.7976   63.8719 C.ar    1  ZINC000442010511    0.1200
     19 C19        -8.9168    0.9963   65.2199 C.ar    1  ZINC000442010511   -0.1000
     20 C20        -7.6114    1.1004   65.6617 C.ar    1  ZINC000442010511   -0.1300
     21 C21        -6.5642    1.0070   64.7637 C.ar    1  ZINC000442010511   -0.0900
     22 C22        -6.8168    0.8095   63.4188 C.ar    1  ZINC000442010511   -0.1700
     23 C23        -8.1220    0.6978   62.9679 C.ar    1  ZINC000442010511    0.1000
     24 O24        -8.3721    0.5036   61.6459 O.3     1  ZINC000442010511   -0.2600
     25 C25        -7.6444    1.2173   60.7474 C.ar    1  ZINC000442010511    0.0800
     26 C26        -7.0160    0.5714   59.6922 C.ar    1  ZINC000442010511   -0.1300
     27 C27        -6.2772    1.2993   58.7799 C.ar    1  ZINC000442010511   -0.1100
     28 C28        -6.1630    2.6704   58.9178 C.ar    1  ZINC000442010511   -0.0800
     29 C29        -5.3559    3.4619   57.9213 C.3     1  ZINC000442010511   -0.1200
     30 C30        -6.7885    3.3166   59.9680 C.ar    1  ZINC000442010511   -0.1100
     31 C31        -7.5329    2.5940   60.8802 C.ar    1  ZINC000442010511   -0.1100
     32 O32       -14.4971   -0.3032   59.4153 O.3     1  ZINC000442010511   -0.1600
     33 H33       -12.5823   -0.6643   57.0354 H       1  ZINC000442010511    0.0600
     34 H34       -12.6194   -2.4413   57.1290 H       1  ZINC000442010511    0.0600
     35 H35       -13.0810   -1.6198   55.6189 H       1  ZINC000442010511    0.0700
     36 H36       -15.0463   -0.6274   56.7597 H       1  ZINC000442010511    0.0900
     37 H37       -15.0834   -2.4044   56.8533 H       1  ZINC000442010511    0.0800
     38 H38       -14.8183   -3.5093   59.2519 H       1  ZINC000442010511    0.1500
     39 H39       -14.7888   -2.5023   61.7580 H       1  ZINC000442010511    0.1500
     40 H40       -16.4164   -0.2299   62.6484 H       1  ZINC000442010511    0.0700
     41 H41       -15.0247   -1.0724   63.3709 H       1  ZINC000442010511    0.0700
     42 H42       -16.0956    1.2556   65.9583 H       1  ZINC000442010511    0.0900
     43 H43       -17.2082    0.3751   64.8835 H       1  ZINC000442010511    0.0400
     44 H44       -15.8154   -0.4663   65.6051 H       1  ZINC000442010511    0.0400
     45 H45       -12.5707   -0.3104   62.4116 H       1  ZINC000442010511    0.4200
     46 H46       -10.9081   -0.1815   63.3202 H       1  ZINC000442010511    0.4300
     47 H47        -9.7327    1.0700   65.9237 H       1  ZINC000442010511    0.1600
     48 H48        -7.4088    1.2554   66.7112 H       1  ZINC000442010511    0.1300
     49 H49        -5.5459    1.0890   65.1139 H       1  ZINC000442010511    0.1300
     50 H50        -5.9963    0.7378   62.7202 H       1  ZINC000442010511    0.1300
     51 H51        -7.1043   -0.4997   59.5845 H       1  ZINC000442010511    0.1300
     52 H52        -5.7879    0.7971   57.9584 H       1  ZINC000442010511    0.1300
     53 H53        -6.0010    3.7809   57.1026 H       1  ZINC000442010511    0.0700
     54 H54        -4.9312    4.3379   58.4115 H       1  ZINC000442010511    0.0700
     55 H55        -4.5517    2.8395   57.5288 H       1  ZINC000442010511    0.0700
     56 H56        -6.6977    4.3876   60.0734 H       1  ZINC000442010511    0.1300
     57 H57        -8.0215    3.0992   61.7002 H       1  ZINC000442010511    0.1300
@<TRIPOS>BOND
     1     1     2    1
     2     1    33    1
     3     1    34    1
     4     1    35    1
     5     2     3    1
     6     2    36    1
     7     2    37    1
     8     3    32    1
     9     3     4    2
    10     4     5    1
    11     4    38    1
    12     5     6    2
    13     5    39    1
    14     6     7    1
    15     6    32    1
    16     7     8    1
    17     7     9    1
    18     7    12    1
    19     9    10    1
    20     9    40    1
    21     9    41    1
    22    10    11    1
    23    11    42    1
    24    11    43    1
    25    11    44    1
    26    12    13   am
    27    12    45    1
    28    13    14    2
    29    13    15    1
    30    15    16    2
    31    15    17   am
    32    17    18    1
    33    17    46    1
    34    18    23   ar
    35    18    19   ar
    36    19    20   ar
    37    19    47    1
    38    20    21   ar
    39    20    48    1
    40    21    22   ar
    41    21    49    1
    42    22    23   ar
    43    22    50    1
    44    23    24    1
    45    24    25    1
    46    25    31   ar
    47    25    26   ar
    48    26    27   ar
    49    26    51    1
    50    27    28   ar
    51    27    52    1
    52    28    29    1
    53    28    30   ar
    54    29    53    1
    55    29    54    1
    56    29    55    1
    57    30    31   ar
    58    30    56    1
    59    31    57    1
@<TRIPOS>SUBSTRUCTURE
     1 ZINC000442010511        1 TEMP              0 ****  ****    0 ROOT


##########                                Name:    ZINC000426805817
##########                DOCK_Rotatable_Bonds:                   6
##########                         Heavy_Atoms:                  26
##########                    Molecular_Weight:             412.286
##########                DOCK_Rotatable_Bonds:                   6
##########                       Formal_Charge:          -0.0100001
##########                     HBond_Acceptors:                   5
##########                        HBond_Donors:                   4
##########                         Heavy_Atoms:                  26
##########                          Grid_Score:          -31.596647
##########                     Grid_vdw_energy:          -29.594967
##########                      Grid_es_energy:           -2.001680
##########           Internal_energy_repulsive:            5.836670

@<TRIPOS>MOLECULE
ZINC000426805817
 44 47 1 0 0
SMALL
USER_CHARGES


@<TRIPOS>ATOM
      1 O1         -4.4592    6.4692   55.3683 O.co2   1  ZINC000426805817   -0.6300
      2 C2         -5.2176    5.5218   55.4851 C.2     1  ZINC000426805817    0.5000
      3 O3         -6.2234    5.6265   56.1663 O.co2   1  ZINC000426805817   -0.6800
      4 C4         -4.9152    4.2233   54.7826 C.3     1  ZINC000426805817   -0.0500
      5 H5         -5.3209    3.3938   55.3618 H       1  ZINC000426805817    0.1300
      6 C6         -5.5538    4.2348   53.3922 C.3     1  ZINC000426805817   -0.0500
      7 C7         -5.3701    2.8869   52.7439 C.2     1  ZINC000426805817   -0.1900
      8 C8         -4.3411    2.5063   51.9705 C.2     1  ZINC000426805817    0.0500
      9 N9         -4.5182    1.2126   51.5617 N.pl3   1  ZINC000426805817   -0.5900
     10 C10        -5.6960    0.7162   52.0753 C.ar    1  ZINC000426805817    0.1100
     11 C11        -6.3400   -0.5122   51.9748 C.ar    1  ZINC000426805817   -0.1200
     12 C12        -7.5405   -0.7138   52.6196 C.ar    1  ZINC000426805817   -0.0700
     13 C13        -8.1187    0.2997   53.3729 C.ar    1  ZINC000426805817   -0.1100
     14 Br14       -9.7674   -0.0031   54.2483 Br      1  ZINC000426805817   -0.0400
     15 C15        -7.4978    1.5237   53.4864 C.ar    1  ZINC000426805817   -0.0400
     16 C16        -6.2778    1.7412   52.8434 C.ar    1  ZINC000426805817   -0.1000
     17 N17        -3.4607    4.0643   54.6522 N.4     1  ZINC000426805817   -0.4800
     18 H18        -3.2583    3.1952   54.1812 H       1  ZINC000426805817    0.4000
     19 H19        -3.0850    4.8325   54.1167 H       1  ZINC000426805817    0.4200
     20 C20        -2.8478    4.0519   55.9872 C.3     1  ZINC000426805817    0.0400
     21 C21        -1.3557    3.8880   55.8534 C.ar    1  ZINC000426805817   -0.1600
     22 C22        -0.6329    3.2402   56.8495 C.ar    1  ZINC000426805817    0.1100
     23 N23        -0.9821    2.6546   58.0458 N.pl3   1  ZINC000426805817   -0.5900
     24 C24         0.1320    2.1496   58.6593 C.2     1  ZINC000426805817    0.0600
     25 C25         1.2163    2.3830   57.9031 C.2     1  ZINC000426805817   -0.2000
     26 C26         0.7595    3.0957   56.7077 C.ar    1  ZINC000426805817   -0.1100
     27 C27         1.4003    3.6010   55.5750 C.ar    1  ZINC000426805817   -0.0400
     28 C28         0.6705    4.2341   54.6085 C.ar    1  ZINC000426805817   -0.1500
     29 C29        -0.7038    4.3745   54.7413 C.ar    1  ZINC000426805817   -0.0700
     30 H30        -6.6179    4.4525   53.4829 H       1  ZINC000426805817    0.1200
     31 H31        -5.0771    5.0004   52.7800 H       1  ZINC000426805817    0.0900
     32 H32        -3.4984    3.1292   51.7093 H       1  ZINC000426805817    0.1700
     33 H33        -3.9055    0.7187   50.9947 H       1  ZINC000426805817    0.4200
     34 H34        -5.8996   -1.3073   51.3913 H       1  ZINC000426805817    0.1300
     35 H35        -8.0372   -1.6693   52.5383 H       1  ZINC000426805817    0.1400
     36 H36        -7.9501    2.3097   54.0730 H       1  ZINC000426805817    0.1400
     37 H37        -3.0660    4.9909   56.4959 H       1  ZINC000426805817    0.1500
     38 H38        -3.2540    3.2223   56.5659 H       1  ZINC000426805817    0.1300
     39 H39        -1.8835    2.6075   58.4010 H       1  ZINC000426805817    0.4300
     40 H40         0.1379    1.6390   59.6109 H       1  ZINC000426805817    0.1800
     41 H41         2.2328    2.0995   58.1329 H       1  ZINC000426805817    0.1500
     42 H42         2.4690    3.4921   55.4632 H       1  ZINC000426805817    0.1300
     43 H43         1.1668    4.6249   53.7324 H       1  ZINC000426805817    0.1300
     44 H44        -1.2669    4.8774   53.9689 H       1  ZINC000426805817    0.1300
@<TRIPOS>BOND
     1     1     2   ar
     2     2     3   ar
     3     2     4    1
     4     4     5    1
     5     4     6    1
     6     4    17    1
     7     6     7    1
     8     6    30    1
     9     6    31    1
    10     7    16    1
    11     7     8    2
    12     8     9    1
    13     8    32    1
    14     9    10    1
    15     9    33    1
    16    10    16   ar
    17    10    11   ar
    18    11    12   ar
    19    11    34    1
    20    12    13   ar
    21    12    35    1
    22    13    14    1
    23    13    15   ar
    24    15    16   ar
    25    15    36    1
    26    17    18    1
    27    17    19    1
    28    17    20    1
    29    20    21    1
    30    20    37    1
    31    20    38    1
    32    21    29   ar
    33    21    22   ar
    34    22    26   ar
    35    22    23    1
    36    23    24    1
    37    23    39    1
    38    24    25    2
    39    24    40    1
    40    25    26    1
    41    25    41    1
    42    26    27   ar
    43    27    28   ar
    44    27    42    1
    45    28    29   ar
    46    28    43    1
    47    29    44    1
@<TRIPOS>SUBSTRUCTURE
     1 ZINC000426805817        1 TEMP              0 ****  ****    0 ROOT


##########                                Name:    ZINC000482540246
##########                DOCK_Rotatable_Bonds:                  10
##########                         Heavy_Atoms:                  30
##########                    Molecular_Weight:              409.46
##########                DOCK_Rotatable_Bonds:                  10
##########                       Formal_Charge:         2.83122e-07
##########                     HBond_Acceptors:                   7
##########                        HBond_Donors:                   2
##########                         Heavy_Atoms:                  30
##########                          Grid_Score:          -31.578165
##########                     Grid_vdw_energy:          -30.996342
##########                      Grid_es_energy:           -0.581822
##########           Internal_energy_repulsive:           16.060305

@<TRIPOS>MOLECULE
ZINC000482540246
 54 56 1 0 0
SMALL
USER_CHARGES


@<TRIPOS>ATOM
      1 C1         -2.9088    1.7863   50.9666 C.3     1  ZINC000482540246    0.0400
      2 O2         -3.6816    2.4145   51.9914 O.3     1  ZINC000482540246   -0.3100
      3 C3         -4.8487    1.8153   52.3375 C.ar    1  ZINC000482540246    0.3300
      4 C4         -5.6440    2.3785   53.3269 C.ar    1  ZINC000482540246   -0.1800
      5 C5         -6.8322    1.7573   53.6706 C.ar    1  ZINC000482540246   -0.0100
      6 C6         -7.7238    2.3366   54.7388 C.3     1  ZINC000482540246    0.2000
      7 H7         -8.7611    2.0791   54.5251 H       1  ZINC000482540246    0.1000
      8 C8         -7.5703    3.8587   54.7610 C.3     1  ZINC000482540246   -0.1600
      9 N9         -7.3431    1.7883   56.0428 N.am    1  ZINC000482540246   -0.7400
     10 C10        -8.2319    1.7804   57.0559 C.2     1  ZINC000482540246    0.7100
     11 O11        -9.3492    2.2298   56.8881 O.2     1  ZINC000482540246   -0.5800
     12 N12        -7.8822    1.2745   58.2553 N.am    1  ZINC000482540246   -0.7400
     13 C13        -8.8489    1.2644   59.3560 C.3     1  ZINC000482540246    0.2100
     14 H14        -9.3313    2.2394   59.4250 H       1  ZINC000482540246    0.1200
     15 C15        -8.1241    0.9598   60.6685 C.3     1  ZINC000482540246    0.0500
     16 O16        -9.0562    0.4376   61.6175 O.3     1  ZINC000482540246   -0.3000
     17 C17        -8.7439    0.5814   62.9328 C.ar    1  ZINC000482540246    0.1000
     18 C18        -7.4371    0.4038   63.3597 C.ar    1  ZINC000482540246   -0.1800
     19 C19        -7.1217    0.5510   64.6974 C.ar    1  ZINC000482540246   -0.0900
     20 C20        -8.1074    0.8753   65.6104 C.ar    1  ZINC000482540246   -0.1300
     21 C21        -9.4126    1.0531   65.1888 C.ar    1  ZINC000482540246   -0.1200
     22 C22        -9.7329    0.9126   63.8509 C.ar    1  ZINC000482540246    0.0700
     23 F23       -11.0078    1.0862   63.4387 F       1  ZINC000482540246   -0.1300
     24 C24        -9.8905    0.2057   59.1001 C.ar    1  ZINC000482540246   -0.1000
     25 C25       -11.2306    0.4988   59.2714 C.ar    1  ZINC000482540246   -0.0800
     26 C26       -12.1859   -0.4723   59.0367 C.ar    1  ZINC000482540246   -0.1200
     27 C27       -11.8014   -1.7364   58.6302 C.ar    1  ZINC000482540246   -0.1200
     28 C28       -10.4615   -2.0292   58.4581 C.ar    1  ZINC000482540246   -0.1200
     29 C29        -9.5062   -1.0568   58.6886 C.ar    1  ZINC000482540246   -0.1000
     30 C30        -7.1840    0.5892   53.0091 C.ar    1  ZINC000482540246   -0.2100
     31 C31        -6.3446    0.0854   52.0351 C.ar    1  ZINC000482540246    0.1500
     32 N32        -5.2207    0.7031   51.7255 N.ar    1  ZINC000482540246   -0.5400
     33 H33        -2.0033    2.3661   50.7874 H       1  ZINC000482540246    0.1000
     34 H34        -2.6383    0.7785   51.2817 H       1  ZINC000482540246    0.0600
     35 H35        -3.4951    1.7351   50.0492 H       1  ZINC000482540246    0.0600
     36 H36        -5.3393    3.2888   53.8217 H       1  ZINC000482540246    0.1500
     37 H37        -6.5329    4.1161   54.9746 H       1  ZINC000482540246    0.0600
     38 H38        -7.8535    4.2666   53.7907 H       1  ZINC000482540246    0.0700
     39 H39        -8.2151    4.2777   55.5335 H       1  ZINC000482540246    0.0700
     40 H40        -6.4515    1.4309   56.1771 H       1  ZINC000482540246    0.4000
     41 H41        -6.9906    0.9171   58.3896 H       1  ZINC000482540246    0.4000
     42 H42        -7.3392    0.2253   60.4881 H       1  ZINC000482540246    0.0800
     43 H43        -7.6815    1.8757   61.0602 H       1  ZINC000482540246    0.0800
     44 H44        -6.6659    0.1500   62.6475 H       1  ZINC000482540246    0.1400
     45 H45        -6.1035    0.4121   65.0298 H       1  ZINC000482540246    0.1300
     46 H46        -7.8581    0.9896   66.6549 H       1  ZINC000482540246    0.1400
     47 H47       -10.1812    1.3060   65.9042 H       1  ZINC000482540246    0.1400
     48 H48       -11.5310    1.4863   59.5890 H       1  ZINC000482540246    0.1200
     49 H49       -13.2329   -0.2436   59.1713 H       1  ZINC000482540246    0.1200
     50 H50       -12.5478   -2.4952   58.4475 H       1  ZINC000482540246    0.1200
     51 H51       -10.1609   -3.0168   58.1408 H       1  ZINC000482540246    0.1200
     52 H52        -8.4594   -1.2855   58.5541 H       1  ZINC000482540246    0.1200
     53 H53        -8.1042    0.0794   53.2536 H       1  ZINC000482540246    0.1400
     54 H54        -6.6138   -0.8233   51.5173 H       1  ZINC000482540246    0.1600
@<TRIPOS>BOND
     1     1     2    1
     2     1    33    1
     3     1    34    1
     4     1    35    1
     5     2     3    1
     6     3    32   ar
     7     3     4   ar
     8     4     5   ar
     9     4    36    1
    10     5     6    1
    11     5    30   ar
    12     6     7    1
    13     6     8    1
    14     6     9    1
    15     8    37    1
    16     8    38    1
    17     8    39    1
    18     9    10   am
    19     9    40    1
    20    10    11    2
    21    10    12   am
    22    12    13    1
    23    12    41    1
    24    13    14    1
    25    13    15    1
    26    13    24    1
    27    15    16    1
    28    15    42    1
    29    15    43    1
    30    16    17    1
    31    17    22   ar
    32    17    18   ar
    33    18    19   ar
    34    18    44    1
    35    19    20   ar
    36    19    45    1
    37    20    21   ar
    38    20    46    1
    39    21    22   ar
    40    21    47    1
    41    22    23    1
    42    24    29   ar
    43    24    25   ar
    44    25    26   ar
    45    25    48    1
    46    26    27   ar
    47    26    49    1
    48    27    28   ar
    49    27    50    1
    50    28    29   ar
    51    28    51    1
    52    29    52    1
    53    30    31   ar
    54    30    53    1
    55    31    32   ar
    56    31    54    1
@<TRIPOS>SUBSTRUCTURE
     1 ZINC000482540246        1 TEMP              0 ****  ****    0 ROOT


##########                                Name:    ZINC000066361645
##########                DOCK_Rotatable_Bonds:                   8
##########                         Heavy_Atoms:                  27
##########                    Molecular_Weight:             392.519
##########                DOCK_Rotatable_Bonds:                   8
##########                       Formal_Charge:           0.0100004
##########                     HBond_Acceptors:                   7
##########                        HBond_Donors:                   2
##########                         Heavy_Atoms:                  27
##########                          Grid_Score:          -31.572222
##########                     Grid_vdw_energy:          -30.418390
##########                      Grid_es_energy:           -1.153832
##########           Internal_energy_repulsive:            9.386728

@<TRIPOS>MOLECULE
ZINC000066361645
 55 57 1 0 0
SMALL
USER_CHARGES


@<TRIPOS>ATOM
      1 C1         -9.5705   -1.9272   54.7665 C.3     1  ZINC000066361645   -0.1400
      2 S2        -10.4389   -0.5483   55.5634 S.3     1  ZINC000066361645   -0.1100
      3 C3        -11.7245   -1.3541   56.4590 C.ar    1  ZINC000066361645   -0.1200
      4 C4        -12.9524   -1.5834   55.8565 C.ar    1  ZINC000066361645   -0.1100
      5 C5        -13.9652   -2.2185   56.5605 C.ar    1  ZINC000066361645    0.0500
      6 C6        -13.7493   -2.6274   57.8708 C.ar    1  ZINC000066361645    0.0700
      7 C7        -12.5223   -2.3974   58.4760 C.ar    1  ZINC000066361645   -0.1100
      8 C8        -11.5073   -1.7676   57.7730 C.ar    1  ZINC000066361645    0.1800
      9 N9        -10.2668   -1.5361   58.3863 N.am    1  ZINC000066361645   -0.6600
     10 C10       -10.0675   -0.4104   59.1000 C.2     1  ZINC000066361645    0.5100
     11 O11       -10.9606    0.4028   59.2122 O.2     1  ZINC000066361645   -0.5000
     12 C12        -8.7351   -0.1619   59.7587 C.3     1  ZINC000066361645   -0.1500
     13 C13        -8.7773    1.1716   60.5078 C.3     1  ZINC000066361645    0.1600
     14 H14        -9.8026    1.3872   60.8083 H       1  ZINC000066361645    0.1000
     15 C15        -8.2688    2.2871   59.5923 C.3     1  ZINC000066361645   -0.1600
     16 N16        -7.9264    1.0904   61.6976 N.am    1  ZINC000066361645   -0.7200
     17 C17        -8.4827    0.9234   62.9138 C.2     1  ZINC000066361645    0.5300
     18 O18        -9.6876    0.8390   63.0230 O.2     1  ZINC000066361645   -0.5400
     19 C19        -7.6075    0.8417   64.1379 C.3     1  ZINC000066361645   -0.1100
     20 C20        -7.1489    2.2472   64.5317 C.3     1  ZINC000066361645   -0.1100
     21 C21        -6.2603    2.1642   65.7744 C.3     1  ZINC000066361645   -0.1200
     22 C22        -7.0526    1.5446   66.9274 C.3     1  ZINC000066361645   -0.1200
     23 C23        -7.5112    0.1390   66.5336 C.3     1  ZINC000066361645   -0.1200
     24 C24        -8.3998    0.2219   65.2908 C.3     1  ZINC000066361645   -0.1000
     25 O25       -14.7305   -3.2593   58.5740 O.3     1  ZINC000066361645   -0.3000
     26 C26       -16.0641   -3.1406   58.0673 C.3     1  ZINC000066361645    0.0200
     27 C27       -16.0287   -3.4020   56.5555 C.3     1  ZINC000066361645    0.0200
     28 O28       -15.1655   -2.4314   55.9532 O.3     1  ZINC000066361645   -0.3100
     29 H29        -9.1881   -2.6053   55.5295 H       1  ZINC000066361645    0.0900
     30 H30       -10.2610   -2.4642   54.1162 H       1  ZINC000066361645    0.0900
     31 H31        -8.7405   -1.5407   54.1750 H       1  ZINC000066361645    0.1100
     32 H32       -13.1205   -1.2668   54.8377 H       1  ZINC000066361645    0.1400
     33 H33       -12.3564   -2.7132   59.4953 H       1  ZINC000066361645    0.1600
     34 H34        -9.5526   -2.1863   58.2966 H       1  ZINC000066361645    0.4100
     35 H35        -8.5215   -0.9669   60.4618 H       1  ZINC000066361645    0.1000
     36 H36        -7.9548   -0.1269   58.9984 H       1  ZINC000066361645    0.1200
     37 H37        -7.2435    2.0714   59.2918 H       1  ZINC000066361645    0.0600
     38 H38        -8.9019    2.3475   58.7071 H       1  ZINC000066361645    0.0700
     39 H39        -8.2989    3.2371   60.1260 H       1  ZINC000066361645    0.0700
     40 H40        -6.9626    1.1568   61.6101 H       1  ZINC000066361645    0.4000
     41 H41        -6.7368    0.2227   63.9214 H       1  ZINC000066361645    0.1000
     42 H42        -6.5845    2.6887   63.7104 H       1  ZINC000066361645    0.0600
     43 H43        -8.0196    2.8662   64.7483 H       1  ZINC000066361645    0.0700
     44 H44        -5.3897    1.5453   65.5579 H       1  ZINC000066361645    0.0600
     45 H45        -5.9336    3.1655   66.0551 H       1  ZINC000066361645    0.0700
     46 H46        -6.4195    1.4854   67.8127 H       1  ZINC000066361645    0.0600
     47 H47        -7.9233    2.1634   67.1439 H       1  ZINC000066361645    0.0600
     48 H48        -6.6404   -0.4799   66.3170 H       1  ZINC000066361645    0.0600
     49 H49        -8.0756   -0.3025   67.3550 H       1  ZINC000066361645    0.0700
     50 H50        -9.2704    0.8409   65.5074 H       1  ZINC000066361645    0.0700
     51 H51        -8.7264   -0.7794   65.0103 H       1  ZINC000066361645    0.0700
     52 H52       -16.7083   -3.8741   58.5522 H       1  ZINC000066361645    0.1300
     53 H53       -16.4416   -2.1359   58.2579 H       1  ZINC000066361645    0.0800
     54 H54       -15.6448   -4.4041   56.3646 H       1  ZINC000066361645    0.0800
     55 H55       -17.0330   -3.3075   56.1424 H       1  ZINC000066361645    0.1200
@<TRIPOS>BOND
     1     1     2    1
     2     1    29    1
     3     1    30    1
     4     1    31    1
     5     2     3    1
     6     3     8   ar
     7     3     4   ar
     8     4     5   ar
     9     4    32    1
    10     5    28    1
    11     5     6   ar
    12     6     7   ar
    13     6    25    1
    14     7     8   ar
    15     7    33    1
    16     8     9    1
    17     9    10   am
    18     9    34    1
    19    10    11    2
    20    10    12    1
    21    12    13    1
    22    12    35    1
    23    12    36    1
    24    13    14    1
    25    13    15    1
    26    13    16    1
    27    15    37    1
    28    15    38    1
    29    15    39    1
    30    16    17   am
    31    16    40    1
    32    17    18    2
    33    17    19    1
    34    19    24    1
    35    19    20    1
    36    19    41    1
    37    20    21    1
    38    20    42    1
    39    20    43    1
    40    21    22    1
    41    21    44    1
    42    21    45    1
    43    22    23    1
    44    22    46    1
    45    22    47    1
    46    23    24    1
    47    23    48    1
    48    23    49    1
    49    24    50    1
    50    24    51    1
    51    25    26    1
    52    26    27    1
    53    26    52    1
    54    26    53    1
    55    27    28    1
    56    27    54    1
    57    27    55    1
@<TRIPOS>SUBSTRUCTURE
     1 ZINC000066361645        1 TEMP              0 ****  ****    0 ROOT


##########                                Name:    ZINC000432253027
##########                DOCK_Rotatable_Bonds:                   8
##########                         Heavy_Atoms:                  26
##########                    Molecular_Weight:             401.436
##########                DOCK_Rotatable_Bonds:                   8
##########                       Formal_Charge:         1.19209e-07
##########                     HBond_Acceptors:                  11
##########                        HBond_Donors:                   0
##########                         Heavy_Atoms:                  26
##########                          Grid_Score:          -31.570757
##########                     Grid_vdw_energy:          -29.724829
##########                      Grid_es_energy:           -1.845929
##########           Internal_energy_repulsive:           13.671869

@<TRIPOS>MOLECULE
ZINC000432253027
 40 42 1 0 0
SMALL
USER_CHARGES


@<TRIPOS>ATOM
      1 C1         -6.5063   -0.6738   51.8728 C.3     1  ZINC000432253027    0.0300
      2 O2         -6.8354    0.3716   52.7899 O.3     1  ZINC000432253027   -0.3100
      3 C3         -6.0060    1.4466   52.8229 C.ar    1  ZINC000432253027    0.1500
      4 C4         -5.0023    1.5797   51.8776 C.ar    1  ZINC000432253027   -0.2100
      5 C5         -4.1584    2.6740   51.9123 C.ar    1  ZINC000432253027   -0.0600
      6 C6         -4.3095    3.6427   52.8890 C.ar    1  ZINC000432253027   -0.1600
      7 C7         -5.3044    3.5246   53.8376 C.ar    1  ZINC000432253027   -0.0300
      8 C8         -6.1658    2.4279   53.8093 C.ar    1  ZINC000432253027   -0.0600
      9 C9         -7.2334    2.2954   54.8225 C.2     1  ZINC000432253027    0.1200
     10 N10        -7.0529    2.2744   56.1123 N.2     1  ZINC000432253027   -0.4600
     11 C11        -8.1241    2.1502   56.8627 C.2     1  ZINC000432253027    0.0800
     12 C12        -8.0472    2.1135   58.3673 C.3     1  ZINC000432253027   -0.0200
     13 S13        -7.1223    0.6432   58.8899 S.3     1  ZINC000432253027   -0.1700
     14 C14        -6.8656    0.9311   60.6624 C.3     1  ZINC000432253027   -0.0300
     15 C15        -8.1262    0.5901   61.4145 C.2     1  ZINC000432253027    0.2100
     16 N16        -9.3103    0.3694   60.8978 N.2     1  ZINC000432253027   -0.2700
     17 N17       -10.1235    0.1099   61.8628 N.2     1  ZINC000432253027   -0.0500
     18 N18        -9.4889    0.1593   62.9818 N.2     1  ZINC000432253027   -0.0700
     19 N19        -8.2533    0.4474   62.7468 N.pl3   1  ZINC000432253027   -0.3100
     20 C20        -7.1907    0.5998   63.7436 C.3     1  ZINC000432253027    0.0700
     21 C21        -7.7932    1.0962   65.0594 C.3     1  ZINC000432253027    0.4300
     22 F22        -8.7740    0.1973   65.4917 F       1  ZINC000432253027   -0.1500
     23 F23        -6.7871    1.1895   66.0272 F       1  ZINC000432253027   -0.1700
     24 F24        -8.3692    2.3559   64.8627 F       1  ZINC000432253027   -0.1700
     25 C25        -9.2864    2.0589   56.2090 C.2     1  ZINC000432253027   -0.2500
     26 S26        -8.9552    2.1483   54.4802 S.3     1  ZINC000432253027    0.1600
     27 H27        -7.2475   -1.4695   51.9476 H       1  ZINC000432253027    0.1000
     28 H28        -6.4997   -0.2777   50.8574 H       1  ZINC000432253027    0.0600
     29 H29        -5.5205   -1.0717   52.1140 H       1  ZINC000432253027    0.0600
     30 H30        -4.8787    0.8274   51.1127 H       1  ZINC000432253027    0.1400
     31 H31        -3.3767    2.7733   51.1738 H       1  ZINC000432253027    0.1300
     32 H32        -3.6458    4.4945   52.9088 H       1  ZINC000432253027    0.1300
     33 H33        -5.4189    4.2826   54.5984 H       1  ZINC000432253027    0.1400
     34 H34        -7.5399    3.0087   58.7271 H       1  ZINC000432253027    0.1000
     35 H35        -9.0545    2.0755   58.7818 H       1  ZINC000432253027    0.1100
     36 H36        -6.0490    0.3028   61.0181 H       1  ZINC000432253027    0.1100
     37 H37        -6.6161    1.9792   60.8278 H       1  ZINC000432253027    0.1300
     38 H38        -6.7047   -0.3622   63.9067 H       1  ZINC000432253027    0.1500
     39 H39        -6.4568    1.3215   63.3849 H       1  ZINC000432253027    0.1600
     40 H40       -10.2609    1.9525   56.6622 H       1  ZINC000432253027    0.1800
@<TRIPOS>BOND
     1     1     2    1
     2     1    27    1
     3     1    28    1
     4     1    29    1
     5     2     3    1
     6     3     8   ar
     7     3     4   ar
     8     4     5   ar
     9     4    30    1
    10     5     6   ar
    11     5    31    1
    12     6     7   ar
    13     6    32    1
    14     7     8   ar
    15     7    33    1
    16     8     9    1
    17     9    26    1
    18     9    10    2
    19    10    11    1
    20    11    12    1
    21    11    25    2
    22    12    13    1
    23    12    34    1
    24    12    35    1
    25    13    14    1
    26    14    15    1
    27    14    36    1
    28    14    37    1
    29    15    19    1
    30    15    16    2
    31    16    17    1
    32    17    18    2
    33    18    19    1
    34    19    20    1
    35    20    21    1
    36    20    38    1
    37    20    39    1
    38    21    22    1
    39    21    23    1
    40    21    24    1
    41    25    26    1
    42    25    40    1
@<TRIPOS>SUBSTRUCTURE
     1 ZINC000432253027        1 TEMP              0 ****  ****    0 ROOT


##########                                Name:    ZINC001461256440
##########                DOCK_Rotatable_Bonds:                  13
##########                         Heavy_Atoms:                  26
##########                    Molecular_Weight:             367.445
##########                DOCK_Rotatable_Bonds:                  13
##########                       Formal_Charge:        -6.37025e-07
##########                     HBond_Acceptors:                   8
##########                        HBond_Donors:                   1
##########                         Heavy_Atoms:                  26
##########                          Grid_Score:          -31.558653
##########                     Grid_vdw_energy:          -30.505598
##########                      Grid_es_energy:           -1.053055
##########           Internal_energy_repulsive:           34.617783

@<TRIPOS>MOLECULE
ZINC001461256440
 55 55 1 0 0
SMALL
USER_CHARGES


@<TRIPOS>ATOM
      1 C1        -12.2942   -0.4974   52.0882 C.3     1  ZINC001461256440   -0.1500
      2 C2        -11.1040   -0.9238   52.9499 C.3     1  ZINC001461256440    0.0600
      3 O3        -10.9072    0.0426   54.0156 O.3     1  ZINC001461256440   -0.3600
      4 C4         -9.9453   -0.2265   54.9123 C.2     1  ZINC001461256440    0.4400
      5 O5         -9.4726   -1.3366   54.9764 O.2     1  ZINC001461256440   -0.4800
      6 C6         -9.4552    0.8558   55.8393 C.3     1  ZINC001461256440    0.1400
      7 N7         -8.2380    1.4566   55.2881 N.pl3   1  ZINC001461256440   -0.3800
      8 N8         -7.7488    1.2820   53.9874 N.2     1  ZINC001461256440   -0.2800
      9 C9         -6.6445    1.9734   53.8657 C.2     1  ZINC001461256440    0.1000
     10 C10        -5.7932    2.0655   52.6257 C.3     1  ZINC001461256440   -0.0700
     11 C11        -6.3902    2.6127   55.0822 C.2     1  ZINC001461256440   -0.2700
     12 C12        -7.3909    2.2827   55.9436 C.2     1  ZINC001461256440    0.3100
     13 N13        -7.5158    2.7116   57.2649 N.am    1  ZINC001461256440   -0.6500
     14 C14        -6.9048    2.0312   58.2549 C.2     1  ZINC001461256440    0.5200
     15 O15        -6.2452    1.0466   57.9967 O.2     1  ZINC001461256440   -0.5000
     16 C16        -7.0411    2.4936   59.6827 C.3     1  ZINC001461256440   -0.1300
     17 C17        -7.1305    1.2773   60.6064 C.3     1  ZINC001461256440   -0.1100
     18 C18        -7.2064    1.7458   62.0608 C.3     1  ZINC001461256440   -0.1100
     19 C19        -6.9692    0.5560   62.9931 C.3     1  ZINC001461256440   -0.1200
     20 C20        -6.7446    1.0550   64.3972 C.2     1  ZINC001461256440    0.4600
     21 O21        -7.6850    1.2193   65.1377 O.2     1  ZINC001461256440   -0.5000
     22 O22        -5.4995    1.3168   64.8252 O.3     1  ZINC001461256440   -0.3500
     23 C23        -5.3574    1.7867   66.1917 C.3     1  ZINC001461256440    0.1200
     24 C24        -3.8779    2.0309   66.4957 C.3     1  ZINC001461256440   -0.1800
     25 C25        -6.1360    3.0921   66.3657 C.3     1  ZINC001461256440   -0.1400
     26 C26        -5.9084    0.7321   67.1536 C.3     1  ZINC001461256440   -0.1800
     27 H27       -12.4419   -1.2228   51.2882 H       1  ZINC001461256440    0.0800
     28 H28       -13.1911   -0.4497   52.7056 H       1  ZINC001461256440    0.0700
     29 H29       -12.0974    0.4841   51.6569 H       1  ZINC001461256440    0.0700
     30 H30       -11.3008   -1.9053   53.3812 H       1  ZINC001461256440    0.0700
     31 H31       -10.2070   -0.9714   52.3324 H       1  ZINC001461256440    0.0700
     32 H32       -10.2239    1.6217   55.9421 H       1  ZINC001461256440    0.1300
     33 H33        -9.2376    0.4259   56.8169 H       1  ZINC001461256440    0.1400
     34 H34        -6.1323    2.9010   52.0133 H       1  ZINC001461256440    0.0800
     35 H35        -4.7528    2.2221   52.9101 H       1  ZINC001461256440    0.0800
     36 H36        -5.8789    1.1397   52.0566 H       1  ZINC001461256440    0.0700
     37 H37        -5.5508    3.2569   55.2990 H       1  ZINC001461256440    0.1800
     38 H38        -8.0423    3.4997   57.4712 H       1  ZINC001461256440    0.4100
     39 H39        -6.1727    3.0935   59.9548 H       1  ZINC001461256440    0.1000
     40 H40        -7.9445    3.0949   59.7852 H       1  ZINC001461256440    0.1000
     41 H41        -8.0233    0.7012   60.3631 H       1  ZINC001461256440    0.0800
     42 H42        -6.2473    0.6529   60.4715 H       1  ZINC001461256440    0.0800
     43 H43        -6.4440    2.5042   62.2385 H       1  ZINC001461256440    0.0700
     44 H44        -8.1919    2.1689   62.2554 H       1  ZINC001461256440    0.0700
     45 H45        -7.8404   -0.0989   62.9752 H       1  ZINC001461256440    0.1100
     46 H46        -6.0916    0.0024   62.6594 H       1  ZINC001461256440    0.1100
     47 H47        -3.4853    2.7822   65.8104 H       1  ZINC001461256440    0.0600
     48 H48        -3.7711    2.3837   67.5216 H       1  ZINC001461256440    0.0700
     49 H49        -3.3231    1.1009   66.3717 H       1  ZINC001461256440    0.0800
     50 H50        -7.1900    2.9182   66.1491 H       1  ZINC001461256440    0.0700
     51 H51        -6.0293    3.4449   67.3915 H       1  ZINC001461256440    0.0800
     52 H52        -5.7434    3.8435   65.6804 H       1  ZINC001461256440    0.0700
     53 H53        -5.3535   -0.1979   67.0296 H       1  ZINC001461256440    0.0800
     54 H54        -5.8016    1.0848   68.1793 H       1  ZINC001461256440    0.0700
     55 H55        -6.9623    0.5581   66.9370 H       1  ZINC001461256440    0.0600
@<TRIPOS>BOND
     1     1     2    1
     2     1    27    1
     3     1    28    1
     4     1    29    1
     5     2     3    1
     6     2    30    1
     7     2    31    1
     8     3     4    1
     9     4     5    2
    10     4     6    1
    11     6     7    1
    12     6    32    1
    13     6    33    1
    14     7    12    1
    15     7     8    1
    16     8     9    2
    17     9    10    1
    18     9    11    1
    19    10    34    1
    20    10    35    1
    21    10    36    1
    22    11    12    2
    23    11    37    1
    24    12    13    1
    25    13    14   am
    26    13    38    1
    27    14    15    2
    28    14    16    1
    29    16    17    1
    30    16    39    1
    31    16    40    1
    32    17    18    1
    33    17    41    1
    34    17    42    1
    35    18    19    1
    36    18    43    1
    37    18    44    1
    38    19    20    1
    39    19    45    1
    40    19    46    1
    41    20    21    2
    42    20    22    1
    43    22    23    1
    44    23    24    1
    45    23    25    1
    46    23    26    1
    47    24    47    1
    48    24    48    1
    49    24    49    1
    50    25    50    1
    51    25    51    1
    52    25    52    1
    53    26    53    1
    54    26    54    1
    55    26    55    1
@<TRIPOS>SUBSTRUCTURE
     1 ZINC001461256440        1 TEMP              0 ****  ****    0 ROOT


##########                                Name:    ZINC000284209281
##########                DOCK_Rotatable_Bonds:                   8
##########                         Heavy_Atoms:                  26
##########                    Molecular_Weight:             353.424
##########                DOCK_Rotatable_Bonds:                   8
##########                       Formal_Charge:          0.00999954
##########                     HBond_Acceptors:                   7
##########                        HBond_Donors:                   1
##########                         Heavy_Atoms:                  26
##########                          Grid_Score:          -31.554323
##########                     Grid_vdw_energy:          -29.568840
##########                      Grid_es_energy:           -1.985483
##########           Internal_energy_repulsive:           10.403383

@<TRIPOS>MOLECULE
ZINC000284209281
 49 51 1 0 0
SMALL
USER_CHARGES


@<TRIPOS>ATOM
      1 O1         -2.6446    5.1595   53.3713 O.2     1  <0>        -0.5100
      2 C2         -2.5016    3.9572   53.4522 C.2     1  <0>         0.5100
      3 N3         -1.7522    3.4328   54.4421 N.am    1  <0>        -0.7000
      4 C4         -1.1052    4.3146   55.4167 C.3     1  <0>         0.1200
      5 C5         -1.8112    4.1864   56.7680 C.3     1  <0>        -0.1000
      6 C6         -0.8308    3.6975   57.8027 C.ar    1  <0>        -0.0400
      7 C7         -0.4086    4.5286   58.8291 C.ar    1  <0>        -0.1700
      8 C8          0.4916    4.0456   59.7598 C.ar    1  <0>         0.1000
      9 N9          0.9481    2.8111   59.6791 N.ar    1  <0>        -0.4900
     10 C10         0.5687    1.9930   58.7169 C.ar    1  <0>         0.1000
     11 C11        -0.3337    2.4042   57.7542 C.ar    1  <0>        -0.1700
     12 C12        -3.1616    3.0576   52.4579 C.2     1  <0>         0.5100
     13 O13        -2.4928    2.4706   51.6329 O.2     1  <0>        -0.5200
     14 N14        -4.4999    2.8983   52.4775 N.am    1  <0>        -0.5800
     15 C15        -5.1689    2.0133   51.5119 C.3     1  <0>         0.0800
     16 C16        -6.0826    1.0543   52.2826 C.3     1  <0>         0.0400
     17 N17        -6.9854    1.8294   53.1440 N.3     1  <0>        -0.5300
     18 C18        -7.9912    0.9603   53.7695 C.3     1  <0>         0.1000
     19 C19        -9.3539    1.2910   53.2175 C.ar    1  <0>         0.1300
     20 C20       -10.3161    0.3024   53.1364 C.ar    1  <0>        -0.1500
     21 C21       -11.5670    0.6172   52.6274 C.ar    1  <0>        -0.0700
     22 C22       -11.8037    1.9202   52.2175 C.ar    1  <0>        -0.1700
     23 C23       -10.7922    2.8557   52.3289 C.ar    1  <0>         0.1000
     24 N24        -9.6161    2.5216   52.8226 N.ar    1  <0>        -0.4800
     25 C25        -6.2371    2.5835   54.1586 C.3     1  <0>         0.0400
     26 C26        -5.3292    3.6003   53.4687 C.3     1  <0>         0.1100
     27 H27        -1.6412    2.4715   54.5091 H       1  <0>         0.4100
     28 H28        -0.0585    4.0304   55.5252 H       1  <0>         0.0800
     29 H29        -1.1674    5.3464   55.0706 H       1  <0>         0.0800
     30 H30        -2.2010    5.1592   57.0679 H       1  <0>         0.0900
     31 H31        -2.6336    3.4761   56.6823 H       1  <0>         0.0900
     32 H32        -0.7783    5.5410   58.9002 H       1  <0>         0.1400
     33 H33         0.8253    4.6866   60.5624 H       1  <0>         0.1600
     34 H34         0.9646    0.9887   58.6833 H       1  <0>         0.1600
     35 H35        -0.6408    1.7293   56.9690 H       1  <0>         0.1400
     36 H36        -5.7640    2.6094   50.8201 H       1  <0>         0.0800
     37 H37        -4.4222    1.4430   50.9594 H       1  <0>         0.1400
     38 H38        -6.6691    0.4653   51.5775 H       1  <0>         0.0900
     39 H39        -5.4760    0.3888   52.8969 H       1  <0>         0.0400
     40 H40        -7.7551   -0.0819   53.5545 H       1  <0>         0.0900
     41 H41        -7.9878    1.1185   54.8480 H       1  <0>         0.0600
     42 H42       -10.0965   -0.7026   53.4649 H       1  <0>         0.1400
     43 H43       -12.3383   -0.1349   52.5518 H       1  <0>         0.1400
     44 H44       -12.7661    2.2008   51.8158 H       1  <0>         0.1400
     45 H45       -10.9685    3.8728   52.0115 H       1  <0>         0.1600
     46 H46        -6.9357    3.1034   54.8140 H       1  <0>         0.1000
     47 H47        -5.6283    1.8967   54.7468 H       1  <0>         0.0400
     48 H48        -4.6897    4.0815   54.2087 H       1  <0>         0.1000
     49 H49        -5.9373    4.3504   52.9631 H       1  <0>         0.0800
@<TRIPOS>BOND
     1     1     2    2
     2     2     3   am
     3     2    12    1
     4     3     4    1
     5     3    27    1
     6     4     5    1
     7     4    28    1
     8     4    29    1
     9     5     6    1
    10     5    30    1
    11     5    31    1
    12     6    11   ar
    13     6     7   ar
    14     7     8   ar
    15     7    32    1
    16     8     9   ar
    17     8    33    1
    18     9    10   ar
    19    10    11   ar
    20    10    34    1
    21    11    35    1
    22    12    13    2
    23    12    14   am
    24    14    26    1
    25    14    15    1
    26    15    16    1
    27    15    36    1
    28    15    37    1
    29    16    17    1
    30    16    38    1
    31    16    39    1
    32    17    18    1
    33    17    25    1
    34    18    19    1
    35    18    40    1
    36    18    41    1
    37    19    24   ar
    38    19    20   ar
    39    20    21   ar
    40    20    42    1
    41    21    22   ar
    42    21    43    1
    43    22    23   ar
    44    22    44    1
    45    23    24   ar
    46    23    45    1
    47    25    26    1
    48    25    46    1
    49    25    47    1
    50    26    48    1
    51    26    49    1
@<TRIPOS>SUBSTRUCTURE
     1 <0>         1 TEMP              0 ****  ****    0 ROOT


##########                                Name:    ZINC000532153088
##########                DOCK_Rotatable_Bonds:                  11
##########                         Heavy_Atoms:                  29
##########                    Molecular_Weight:             402.484
##########                DOCK_Rotatable_Bonds:                  11
##########                       Formal_Charge:          -0.0200009
##########                     HBond_Acceptors:                   6
##########                        HBond_Donors:                   1
##########                         Heavy_Atoms:                  29
##########                          Grid_Score:          -31.528187
##########                     Grid_vdw_energy:          -31.927710
##########                      Grid_es_energy:            0.399523
##########           Internal_energy_repulsive:           18.214420

@<TRIPOS>MOLECULE
ZINC000532153088
 57 59 1 0 0
SMALL
USER_CHARGES


@<TRIPOS>ATOM
      1 C1        -11.3918   -2.3384   58.9856 C.3     1  ZINC000532153088   -0.1800
      2 C2        -10.3939   -2.3694   57.8262 C.3     1  ZINC000532153088    0.0800
      3 C3        -10.1430   -3.8195   57.4078 C.3     1  ZINC000532153088   -0.1500
      4 O4        -10.9270   -1.6396   56.7192 O.3     1  ZINC000532153088   -0.3800
      5 C5        -10.1026   -1.6696   55.5523 C.3     1  ZINC000532153088    0.1000
      6 C6        -10.6115   -0.6637   54.5520 C.ar    1  ZINC000532153088   -0.0700
      7 C7        -11.2154   -1.0938   53.3855 C.ar    1  ZINC000532153088   -0.1000
      8 C8        -11.6822   -0.1710   52.4679 C.ar    1  ZINC000532153088   -0.1100
      9 C9        -11.5455    1.1816   52.7173 C.ar    1  ZINC000532153088   -0.1200
     10 C10       -10.9423    1.6118   53.8847 C.ar    1  ZINC000532153088   -0.1000
     11 C11       -10.4795    0.6893   54.8039 C.ar    1  ZINC000532153088   -0.1100
     12 C12        -9.8220    1.1581   56.0763 C.3     1  ZINC000532153088    0.1600
     13 N13        -9.1690    2.4485   55.8419 N.am    1  ZINC000532153088   -0.7300
     14 C14        -8.0937    2.5224   55.0328 C.2     1  ZINC000532153088    0.5100
     15 O15        -7.6657    1.5205   54.5000 O.2     1  ZINC000532153088   -0.5000
     16 C16        -7.4231    3.8500   54.7902 C.3     1  ZINC000532153088    0.0300
     17 N17        -5.9725    3.7064   54.9721 N.3     1  ZINC000532153088   -0.4800
     18 C18        -5.2369    4.5689   54.0378 C.3     1  ZINC000532153088    0.1000
     19 C19        -4.4073    3.7155   53.1135 C.ar    1  ZINC000532153088   -0.1300
     20 C20        -5.0263    2.8748   52.2082 C.ar    1  ZINC000532153088   -0.0600
     21 C21        -4.2666    2.0918   51.3593 C.ar    1  ZINC000532153088   -0.1700
     22 C22        -2.8844    2.1490   51.4153 C.ar    1  ZINC000532153088    0.1300
     23 F23        -2.1422    1.3840   50.5852 F       1  ZINC000532153088   -0.1300
     24 C24        -2.2632    2.9909   52.3218 C.ar    1  ZINC000532153088   -0.2000
     25 C25        -3.0248    3.7784   53.1676 C.ar    1  ZINC000532153088    0.1600
     26 F26        -2.4200    4.6004   54.0527 F       1  ZINC000532153088   -0.1100
     27 C27        -5.5860    3.9854   56.3617 C.3     1  ZINC000532153088    0.0200
     28 C28        -5.6000    2.8152   57.3472 C.3     1  ZINC000532153088   -0.2200
     29 C29        -4.2680    3.3902   56.8614 C.3     1  ZINC000532153088   -0.1700
     30 H30       -10.9853   -2.8950   59.8299 H       1  ZINC000532153088    0.0700
     31 H31       -11.5705   -1.3053   59.2835 H       1  ZINC000532153088    0.0600
     32 H32       -12.3307   -2.7928   58.6690 H       1  ZINC000532153088    0.0700
     33 H33        -9.4550   -1.9150   58.1427 H       1  ZINC000532153088    0.0600
     34 H34       -11.0819   -4.2740   57.0913 H       1  ZINC000532153088    0.0600
     35 H35        -9.4321   -3.8416   56.5819 H       1  ZINC000532153088    0.0600
     36 H36        -9.7365   -4.3762   58.2521 H       1  ZINC000532153088    0.0700
     37 H37        -9.0767   -1.4231   55.8256 H       1  ZINC000532153088    0.0600
     38 H38       -10.1320   -2.6664   55.1122 H       1  ZINC000532153088    0.0600
     39 H39       -11.3222   -2.1507   53.1907 H       1  ZINC000532153088    0.1300
     40 H40       -12.1534   -0.5070   51.5561 H       1  ZINC000532153088    0.1200
     41 H41       -11.9096    1.9024   52.0003 H       1  ZINC000532153088    0.1300
     42 H42       -10.8352    2.6687   54.0794 H       1  ZINC000532153088    0.1300
     43 H43       -10.5761    1.2689   56.8555 H       1  ZINC000532153088    0.0800
     44 H44        -9.0781    0.4266   56.3919 H       1  ZINC000532153088    0.0800
     45 H45        -9.5107    3.2496   56.2690 H       1  ZINC000532153088    0.4000
     46 H46        -7.6307    4.1814   53.7728 H       1  ZINC000532153088    0.0700
     47 H47        -7.8069    4.5855   55.4973 H       1  ZINC000532153088    0.1100
     48 H48        -5.9439    5.1569   53.4527 H       1  ZINC000532153088    0.0900
     49 H49        -4.5840    5.2381   54.5983 H       1  ZINC000532153088    0.0500
     50 H50        -6.1044    2.8291   52.1640 H       1  ZINC000532153088    0.1400
     51 H51        -4.7514    1.4347   50.6524 H       1  ZINC000532153088    0.1400
     52 H52        -1.1850    3.0363   52.3662 H       1  ZINC000532153088    0.1500
     53 H53        -5.8709    4.9667   56.7409 H       1  ZINC000532153088    0.1200
     54 H54        -5.8943    3.0266   58.3753 H       1  ZINC000532153088    0.1000
     55 H55        -5.8960    1.8384   56.9647 H       1  ZINC000532153088    0.1000
     56 H56        -3.6878    2.7917   56.1591 H       1  ZINC000532153088    0.1000
     57 H57        -3.6860    3.9799   57.5697 H       1  ZINC000532153088    0.1000
@<TRIPOS>BOND
     1     1     2    1
     2     1    30    1
     3     1    31    1
     4     1    32    1
     5     2     3    1
     6     2     4    1
     7     2    33    1
     8     3    34    1
     9     3    35    1
    10     3    36    1
    11     4     5    1
    12     5     6    1
    13     5    37    1
    14     5    38    1
    15     6    11   ar
    16     6     7   ar
    17     7     8   ar
    18     7    39    1
    19     8     9   ar
    20     8    40    1
    21     9    10   ar
    22     9    41    1
    23    10    11   ar
    24    10    42    1
    25    11    12    1
    26    12    13    1
    27    12    43    1
    28    12    44    1
    29    13    14   am
    30    13    45    1
    31    14    15    2
    32    14    16    1
    33    16    17    1
    34    16    46    1
    35    16    47    1
    36    17    18    1
    37    17    27    1
    38    18    19    1
    39    18    48    1
    40    18    49    1
    41    19    25   ar
    42    19    20   ar
    43    20    21   ar
    44    20    50    1
    45    21    22   ar
    46    21    51    1
    47    22    23    1
    48    22    24   ar
    49    24    25   ar
    50    24    52    1
    51    25    26    1
    52    27    29    1
    53    27    28    1
    54    27    53    1
    55    28    29    1
    56    28    54    1
    57    28    55    1
    58    29    56    1
    59    29    57    1
@<TRIPOS>SUBSTRUCTURE
     1 ZINC000532153088        1 TEMP              0 ****  ****    0 ROOT


##########                                Name:    ZINC000432833246
##########                DOCK_Rotatable_Bonds:                   5
##########                         Heavy_Atoms:                  25
##########                    Molecular_Weight:             400.318
##########                DOCK_Rotatable_Bonds:                   5
##########                       Formal_Charge:        -3.20375e-07
##########                     HBond_Acceptors:                   4
##########                        HBond_Donors:                   1
##########                         Heavy_Atoms:                  25
##########                          Grid_Score:          -31.509357
##########                     Grid_vdw_energy:          -30.672951
##########                      Grid_es_energy:           -0.836407
##########           Internal_energy_repulsive:            8.871938

@<TRIPOS>MOLECULE
ZINC000432833246
 47 51 1 0 0
SMALL
USER_CHARGES


@<TRIPOS>ATOM
      1 O1         -2.1878    1.6524   50.9607 O.2     1  ZINC000432833246   -0.5200
      2 C2         -2.9893    2.2328   51.6620 C.2     1  ZINC000432833246    0.5200
      3 C3         -4.4923    2.1500   51.5115 C.3     1  ZINC000432833246   -0.1500
      4 C4         -5.0382    2.6963   52.8511 C.3     1  ZINC000432833246   -0.1100
      5 H5         -5.2182    1.8865   53.5582 H       1  ZINC000432833246    0.1000
      6 C6         -6.3092    3.5188   52.6297 C.3     1  ZINC000432833246    0.1300
      7 N7         -6.9776    3.7401   53.9145 N.pl3   1  ZINC000432833246   -0.7200
      8 C8         -7.6147    2.6881   54.5548 C.ar    1  ZINC000432833246    0.2800
      9 C9         -7.3288    2.3745   55.9049 C.ar    1  ZINC000432833246   -0.1500
     10 C10        -6.3942    3.1136   56.6434 C.ar    1  ZINC000432833246   -0.0700
     11 C11        -6.1461    2.7815   57.9413 C.ar    1  ZINC000432833246   -0.1300
     12 C12        -6.8093    1.7157   58.5446 C.ar    1  ZINC000432833246   -0.0600
     13 C13        -7.7231    0.9771   57.8556 C.ar    1  ZINC000432833246   -0.0800
     14 Br14       -8.6093   -0.4644   58.7000 Br      1  ZINC000432833246   -0.0300
     15 C15        -8.0054    1.2911   56.5141 C.ar    1  ZINC000432833246    0.1900
     16 N16        -8.8987    0.5828   55.8141 N.ar    1  ZINC000432833246   -0.5000
     17 C17        -9.1727    0.8642   54.5614 C.ar    1  ZINC000432833246    0.2400
     18 C18       -10.1893    0.0275   53.8284 C.3     1  ZINC000432833246   -0.1100
     19 C19        -9.7279   -1.3237   53.2786 C.3     1  ZINC000432833246   -0.1700
     20 C20       -10.6517   -1.2687   54.4970 C.3     1  ZINC000432833246   -0.1600
     21 C21        -8.5560    1.9138   53.8946 C.ar    1  ZINC000432833246   -0.2700
     22 C22        -3.8731    3.5939   53.3234 C.3     1  ZINC000432833246    0.1100
     23 N23        -2.6713    3.0387   52.6898 N.am    1  ZINC000432833246   -0.5900
     24 C24        -1.3011    3.3322   53.1169 C.3     1  ZINC000432833246    0.0800
     25 C25        -0.9691    4.7810   53.4796 C.3     1  ZINC000432833246   -0.1900
     26 C26        -1.0858    3.7244   54.5800 C.3     1  ZINC000432833246   -0.1900
     27 H27        -4.8274    2.7716   50.6811 H       1  ZINC000432833246    0.1100
     28 H28        -4.8046    1.1160   51.3655 H       1  ZINC000432833246    0.1000
     29 H29        -6.0476    4.4794   52.1860 H       1  ZINC000432833246    0.0800
     30 H30        -6.9789    2.9795   51.9598 H       1  ZINC000432833246    0.0700
     31 H31        -6.9744    4.6226   54.3171 H       1  ZINC000432833246    0.4000
     32 H32        -5.8733    3.9418   56.1859 H       1  ZINC000432833246    0.1300
     33 H33        -5.4259    3.3516   58.5094 H       1  ZINC000432833246    0.1400
     34 H34        -6.5954    1.4709   59.5744 H       1  ZINC000432833246    0.1400
     35 H35       -10.9242    0.5835   53.2464 H       1  ZINC000432833246    0.1300
     36 H36       -10.1592   -1.6568   52.3346 H       1  ZINC000432833246    0.1000
     37 H37        -8.6890   -1.6074   53.4471 H       1  ZINC000432833246    0.1000
     38 H38       -10.2206   -1.5162   55.4671 H       1  ZINC000432833246    0.0900
     39 H39       -11.6908   -1.5655   54.3545 H       1  ZINC000432833246    0.1000
     40 H40        -8.8026    2.1212   52.8639 H       1  ZINC000432833246    0.1400
     41 H41        -4.0340    4.6222   52.9997 H       1  ZINC000432833246    0.0800
     42 H42        -3.7789    3.5497   54.4085 H       1  ZINC000432833246    0.0900
     43 H43        -0.5216    2.7428   52.6340 H       1  ZINC000432833246    0.1300
     44 H44         0.0287    5.1452   53.2352 H       1  ZINC000432833246    0.1000
     45 H45        -1.7703    5.5159   53.4005 H       1  ZINC000432833246    0.1300
     46 H46        -1.9637    3.7641   55.2248 H       1  ZINC000432833246    0.0900
     47 H47        -0.1645    3.3934   55.0595 H       1  ZINC000432833246    0.1000
@<TRIPOS>BOND
     1     1     2    2
     2     2    23   am
     3     2     3    1
     4     3     4    1
     5     3    27    1
     6     3    28    1
     7     4     5    1
     8     4     6    1
     9     4    22    1
    10     6     7    1
    11     6    29    1
    12     6    30    1
    13     7     8    1
    14     7    31    1
    15     8    21   ar
    16     8     9   ar
    17     9    15   ar
    18     9    10   ar
    19    10    11   ar
    20    10    32    1
    21    11    12   ar
    22    11    33    1
    23    12    13   ar
    24    12    34    1
    25    13    14    1
    26    13    15   ar
    27    15    16   ar
    28    16    17   ar
    29    17    18    1
    30    17    21   ar
    31    18    20    1
    32    18    19    1
    33    18    35    1
    34    19    20    1
    35    19    36    1
    36    19    37    1
    37    20    38    1
    38    20    39    1
    39    21    40    1
    40    22    23    1
    41    22    41    1
    42    22    42    1
    43    23    24    1
    44    24    26    1
    45    24    25    1
    46    24    43    1
    47    25    26    1
    48    25    44    1
    49    25    45    1
    50    26    46    1
    51    26    47    1
@<TRIPOS>SUBSTRUCTURE
     1 ZINC000432833246        1 TEMP              0 ****  ****    0 ROOT


##########                                Name:    ZINC000766421809
##########                DOCK_Rotatable_Bonds:                   7
##########                         Heavy_Atoms:                  26
##########                    Molecular_Weight:             358.372
##########                DOCK_Rotatable_Bonds:                   7
##########                       Formal_Charge:         4.61936e-07
##########                     HBond_Acceptors:                   8
##########                        HBond_Donors:                   0
##########                         Heavy_Atoms:                  26
##########                          Grid_Score:          -31.420311
##########                     Grid_vdw_energy:          -31.485014
##########                      Grid_es_energy:            0.064702
##########           Internal_energy_repulsive:            7.959511

@<TRIPOS>MOLECULE
ZINC000766421809
 45 47 1 0 0
SMALL
USER_CHARGES


@<TRIPOS>ATOM
      1 C1        -12.6602    2.2803   49.4184 C.3     1  ZINC000766421809   -0.0700
      2 C2        -11.4063    3.0559   49.7308 C.2     1  ZINC000766421809    0.0700
      3 N3        -10.7311    3.7944   48.8880 N.2     1  ZINC000766421809   -0.2900
      4 N4         -9.6359    4.3434   49.5672 N.pl3   1  ZINC000766421809   -0.3700
      5 C5         -8.6230    5.2324   48.9928 C.3     1  ZINC000766421809    0.1000
      6 C6         -9.6785    3.9087   50.8441 C.2     1  ZINC000766421809    0.0700
      7 C7         -8.6940    4.2507   51.9325 C.3     1  ZINC000766421809    0.1400
      8 O8         -7.6582    3.2346   51.9850 O.3     1  ZINC000766421809   -0.3400
      9 C9         -6.5503    3.5293   52.6833 C.2     1  ZINC000766421809    0.4700
     10 O10        -6.3352    4.6689   53.0223 O.2     1  ZINC000766421809   -0.5000
     11 C11        -5.5748    2.4388   53.0442 C.3     1  ZINC000766421809   -0.1100
     12 C12        -5.6391    1.3288   51.9930 C.3     1  ZINC000766421809   -0.0200
     13 C13        -6.6886    0.3224   52.3887 C.2     1  ZINC000766421809    0.1900
     14 N14        -7.6585    0.5074   53.2492 N.2     1  ZINC000766421809   -0.4700
     15 C15        -8.3431   -0.6584   53.2813 C.2     1  ZINC000766421809    0.2200
     16 C16        -9.5386   -0.9556   54.1084 C.ar    1  ZINC000766421809   -0.0300
     17 C17       -10.7079   -0.2174   53.9367 C.ar    1  ZINC000766421809   -0.0500
     18 C18       -11.8176   -0.4973   54.7075 C.ar    1  ZINC000766421809   -0.1500
     19 C19       -11.7700   -1.5103   55.6514 C.ar    1  ZINC000766421809    0.1200
     20 F20       -12.8587   -1.7809   56.4044 F       1  ZINC000766421809   -0.1300
     21 C21       -10.6093   -2.2472   55.8250 C.ar    1  ZINC000766421809   -0.1200
     22 C22       -10.5640   -3.3486   56.8527 C.3     1  ZINC000766421809   -0.1200
     23 C23        -9.4971   -1.9775   55.0550 C.ar    1  ZINC000766421809   -0.0600
     24 N24        -7.7541   -1.4748   52.4464 N.2     1  ZINC000766421809   -0.3700
     25 O25        -6.8081   -0.9249   51.9232 O.3     1  ZINC000766421809    0.0900
     26 C26       -10.7669    3.1152   50.9734 C.2     1  ZINC000766421809   -0.2400
     27 H27       -13.5313    2.9109   49.5967 H       1  ZINC000766421809    0.0800
     28 H28       -12.6445    1.9696   48.3738 H       1  ZINC000766421809    0.0700
     29 H29       -12.7119    1.3998   50.0588 H       1  ZINC000766421809    0.0800
     30 H30        -8.9411    6.2685   49.1086 H       1  ZINC000766421809    0.0800
     31 H31        -7.6743    5.0838   49.5089 H       1  ZINC000766421809    0.0900
     32 H32        -8.4996    5.0064   47.9337 H       1  ZINC000766421809    0.0900
     33 H33        -8.2418    5.2199   51.7219 H       1  ZINC000766421809    0.0900
     34 H34        -9.2116    4.2919   52.8908 H       1  ZINC000766421809    0.0900
     35 H35        -4.5659    2.8499   53.0771 H       1  ZINC000766421809    0.1200
     36 H36        -5.8325    2.0294   54.0210 H       1  ZINC000766421809    0.1200
     37 H37        -5.8953    1.7594   51.0251 H       1  ZINC000766421809    0.1200
     38 H38        -4.6695    0.8353   51.9260 H       1  ZINC000766421809    0.1200
     39 H39       -10.7455    0.5730   53.2015 H       1  ZINC000766421809    0.1500
     40 H40       -12.7242    0.0744   54.5751 H       1  ZINC000766421809    0.1500
     41 H41       -10.8744   -4.2870   56.3934 H       1  ZINC000766421809    0.0800
     42 H42        -9.5474   -3.4491   57.2330 H       1  ZINC000766421809    0.0800
     43 H43       -11.2372   -3.1063   57.6749 H       1  ZINC000766421809    0.0700
     44 H44        -8.5929   -2.5523   55.1911 H       1  ZINC000766421809    0.1400
     45 H45       -11.0825    2.6116   51.8752 H       1  ZINC000766421809    0.1500
@<TRIPOS>BOND
     1     1     2    1
     2     1    27    1
     3     1    28    1
     4     1    29    1
     5     2    26    1
     6     2     3    2
     7     3     4    1
     8     4     5    1
     9     4     6    1
    10     5    30    1
    11     5    31    1
    12     5    32    1
    13     6     7    1
    14     6    26    2
    15     7     8    1
    16     7    33    1
    17     7    34    1
    18     8     9    1
    19     9    10    2
    20     9    11    1
    21    11    12    1
    22    11    35    1
    23    11    36    1
    24    12    13    1
    25    12    37    1
    26    12    38    1
    27    13    25    1
    28    13    14    2
    29    14    15    1
    30    15    16    1
    31    15    24    2
    32    16    23   ar
    33    16    17   ar
    34    17    18   ar
    35    17    39    1
    36    18    19   ar
    37    18    40    1
    38    19    20    1
    39    19    21   ar
    40    21    22    1
    41    21    23   ar
    42    22    41    1
    43    22    42    1
    44    22    43    1
    45    23    44    1
    46    24    25    1
    47    26    45    1
@<TRIPOS>SUBSTRUCTURE
     1 ZINC000766421809        1 TEMP              0 ****  ****    0 ROOT


##########                                Name:    ZINC001570985666
##########                DOCK_Rotatable_Bonds:                   7
##########                         Heavy_Atoms:                  26
##########                    Molecular_Weight:             357.415
##########                DOCK_Rotatable_Bonds:                   7
##########                       Formal_Charge:          -0.0100001
##########                     HBond_Acceptors:                   9
##########                        HBond_Donors:                   3
##########                         Heavy_Atoms:                  26
##########                          Grid_Score:          -31.409775
##########                     Grid_vdw_energy:          -27.128885
##########                      Grid_es_energy:           -4.280889
##########           Internal_energy_repulsive:           10.129086

@<TRIPOS>MOLECULE
ZINC001570985666
 49 52 1 0 0
SMALL
USER_CHARGES


@<TRIPOS>ATOM
      1 C1         -9.8970    1.1527   56.6477 C.3     1  ZINC001570985666   -0.1600
      2 C2         -8.4253    1.5390   56.8095 C.3     1  ZINC001570985666    0.1300
      3 H3         -7.8265    0.6474   56.9951 H       1  ZINC001570985666    0.0800
      4 C4         -8.2688    2.5302   57.9820 C.3     1  ZINC001570985666    0.1400
      5 H5         -9.2064    3.0519   58.1738 H       1  ZINC001570985666    0.1100
      6 N6         -7.8072    1.8377   59.1877 N.am    1  ZINC001570985666   -0.7200
      7 C7         -8.1813    2.2810   60.4042 C.2     1  ZINC001570985666    0.6000
      8 O8         -8.9010    3.2566   60.5012 O.2     1  ZINC001570985666   -0.5300
      9 C9         -7.7187    1.5836   61.6166 C.2     1  ZINC001570985666   -0.2300
     10 C10        -6.8369    0.5258   61.6684 C.2     1  ZINC001570985666    0.0700
     11 N11        -6.6725    0.1760   62.9597 N.pl3   1  ZINC001570985666   -0.5200
     12 C12        -7.4383    0.9952   63.7520 C.2     1  ZINC001570985666    0.0600
     13 C13        -7.5313    0.9307   65.2277 C.2     1  ZINC001570985666    0.2500
     14 N14        -8.2654    1.7033   66.0060 N.2     1  ZINC001570985666   -0.3100
     15 N15        -8.0720    1.3319   67.2249 N.pl3   1  ZINC001570985666   -0.2200
     16 N16        -7.2400    0.3499   67.2447 N.2     1  ZINC001570985666   -0.0400
     17 N17        -6.8903    0.0717   66.0348 N.2     1  ZINC001570985666   -0.2600
     18 C18        -8.0912    1.8775   62.9540 C.2     1  ZINC001570985666   -0.0600
     19 C19        -7.1885    3.5152   57.4624 C.3     1  ZINC001570985666   -0.1500
     20 C20        -7.5336    3.5879   55.9540 C.3     1  ZINC001570985666    0.1000
     21 N21        -7.9498    2.2166   55.5945 N.am    1  ZINC001570985666   -0.6200
     22 C22        -7.9023    1.6799   54.3591 C.2     1  ZINC001570985666    0.5300
     23 O23        -8.2726    0.5391   54.1791 O.2     1  ZINC001570985666   -0.5300
     24 C24        -7.3894    2.4972   53.2016 C.3     1  ZINC001570985666   -0.1300
     25 C25        -5.9628    2.0610   52.8619 C.3     1  ZINC001570985666   -0.1000
     26 C26        -5.8800    1.1098   51.6564 C.3     1  ZINC001570985666   -0.1300
     27 C27        -4.6221    1.8853   51.2308 C.3     1  ZINC001570985666   -0.1400
     28 C28        -5.1928    3.0828   52.0086 C.3     1  ZINC001570985666   -0.1400
     29 H29       -10.0006    0.4574   55.8147 H       1  ZINC001570985666    0.0700
     30 H30       -10.2508    0.6786   57.5631 H       1  ZINC001570985666    0.0700
     31 H31       -10.4878    2.0472   56.4500 H       1  ZINC001570985666    0.0600
     32 H32        -7.2323    1.0603   59.1105 H       1  ZINC001570985666    0.4000
     33 H33        -6.3601    0.0571   60.8202 H       1  ZINC001570985666    0.1800
     34 H34        -6.1031   -0.5415   63.2788 H       1  ZINC001570985666    0.4300
     35 H35        -8.4881    1.7303   68.0053 H       1  ZINC001570985666    0.4800
     36 H36        -8.7712    2.6525   63.2756 H       1  ZINC001570985666    0.1600
     37 H37        -7.2915    4.4923   57.9344 H       1  ZINC001570985666    0.0900
     38 H38        -6.1870    3.1129   57.6151 H       1  ZINC001570985666    0.0800
     39 H39        -8.3501    4.2900   55.7851 H       1  ZINC001570985666    0.0800
     40 H40        -6.6558    3.8799   55.3777 H       1  ZINC001570985666    0.0800
     41 H41        -8.0323    2.3435   52.3351 H       1  ZINC001570985666    0.0900
     42 H42        -7.3915    3.5528   53.4732 H       1  ZINC001570985666    0.0900
     43 H43        -5.4077    1.7132   53.7332 H       1  ZINC001570985666    0.1000
     44 H44        -5.6821    0.0736   51.9307 H       1  ZINC001570985666    0.0700
     45 H45        -6.7128    1.2130   50.9608 H       1  ZINC001570985666    0.0800
     46 H46        -3.7000    1.4883   51.6553 H       1  ZINC001570985666    0.0800
     47 H47        -4.5561    2.0542   50.1559 H       1  ZINC001570985666    0.0700
     48 H48        -5.8378    3.7255   51.4093 H       1  ZINC001570985666    0.0800
     49 H49        -4.4403    3.6394   52.5672 H       1  ZINC001570985666    0.0700
@<TRIPOS>BOND
     1     1     2    1
     2     1    29    1
     3     1    30    1
     4     1    31    1
     5     2     3    1
     6     2    21    1
     7     2     4    1
     8     4     5    1
     9     4     6    1
    10     4    19    1
    11     6     7   am
    12     6    32    1
    13     7     8    2
    14     7     9    1
    15     9    18    1
    16     9    10    2
    17    10    11    1
    18    10    33    1
    19    11    12    1
    20    11    34    1
    21    12    13    1
    22    12    18    2
    23    13    17    1
    24    13    14    2
    25    14    15    1
    26    15    16    1
    27    15    35    1
    28    16    17    2
    29    18    36    1
    30    19    20    1
    31    19    37    1
    32    19    38    1
    33    20    21    1
    34    20    39    1
    35    20    40    1
    36    21    22   am
    37    22    23    2
    38    22    24    1
    39    24    25    1
    40    24    41    1
    41    24    42    1
    42    25    28    1
    43    25    26    1
    44    25    43    1
    45    26    27    1
    46    26    44    1
    47    26    45    1
    48    27    28    1
    49    27    46    1
    50    27    47    1
    51    28    48    1
    52    28    49    1
@<TRIPOS>SUBSTRUCTURE
     1 ZINC001570985666        1 TEMP              0 ****  ****    0 ROOT


##########                                Name:    ZINC000563265674
##########                DOCK_Rotatable_Bonds:                   7
##########                         Heavy_Atoms:                  25
##########                    Molecular_Weight:             386.859
##########                DOCK_Rotatable_Bonds:                   7
##########                       Formal_Charge:          0.00999963
##########                     HBond_Acceptors:                  10
##########                        HBond_Donors:                   2
##########                         Heavy_Atoms:                  25
##########                          Grid_Score:          -31.407913
##########                     Grid_vdw_energy:          -27.569519
##########                      Grid_es_energy:           -3.838395
##########           Internal_energy_repulsive:           11.256602

@<TRIPOS>MOLECULE
ZINC000563265674
 44 45 1 0 0
SMALL
USER_CHARGES


@<TRIPOS>ATOM
      1 C1         -9.2957    4.3291   49.8329 C.3     1  ZINC000563265674   -0.0600
      2 C2         -8.0512    4.1543   50.6646 C.2     1  ZINC000563265674    0.1700
      3 N3         -7.3394    5.1046   51.1926 N.2     1  ZINC000563265674   -0.3800
      4 O4         -6.4016    4.6367   51.8034 O.3     1  ZINC000563265674    0.0900
      5 C5         -6.4269    3.3031   51.7204 C.2     1  ZINC000563265674    0.1900
      6 C6         -5.4407    2.3465   52.3396 C.3     1  ZINC000563265674    0.2100
      7 C7         -5.7350    0.9256   51.8542 C.3     1  ZINC000563265674   -0.1400
      8 C8         -4.0206    2.7416   51.9297 C.3     1  ZINC000563265674   -0.1800
      9 N9         -5.5605    2.3987   53.8028 N.3     1  ZINC000563265674   -0.6600
     10 C10        -6.8648    1.8856   54.2428 C.3     1  ZINC000563265674    0.0400
     11 C11        -7.1063    2.2892   55.6745 C.2     1  ZINC000563265674    0.5200
     12 O12        -8.0133    3.0474   55.9461 O.2     1  ZINC000563265674   -0.4900
     13 N13        -6.3146    1.8077   56.6531 N.am    1  ZINC000563265674   -0.6700
     14 C14        -6.5389    2.1826   57.9830 C.ar    1  ZINC000563265674    0.1400
     15 C15        -7.3326    1.3932   58.8038 C.ar    1  ZINC000563265674   -0.0300
     16 C16        -7.5519    1.7654   60.1160 C.ar    1  ZINC000563265674   -0.6400
     17 S17        -8.5591    0.7634   61.1583 S.o2    1  ZINC000563265674    2.5000
     18 C18        -7.5529    0.5028   62.6451 C.3     1  ZINC000563265674   -0.6500
     19 O19        -9.6820    1.5827   61.4533 O.2     1  ZINC000563265674   -0.9300
     20 O20        -8.7082   -0.4522   60.4378 O.2     1  ZINC000563265674   -0.9300
     21 C21        -6.9818    2.9229   60.6127 C.ar    1  ZINC000563265674   -0.0300
     22 C22        -6.1906    3.7125   59.7982 C.ar    1  ZINC000563265674   -0.1100
     23 C23        -5.9627    3.3430   58.4863 C.ar    1  ZINC000563265674   -0.0200
     24 Cl24       -4.9690    4.3339   57.4644 Cl      1  ZINC000563265674   -0.0500
     25 N25        -7.4765    2.9858   51.0013 N.2     1  ZINC000563265674   -0.4700
     26 H26       -10.1700    4.3343   50.4839 H       1  ZINC000563265674    0.0900
     27 H27        -9.2408    5.2732   49.2908 H       1  ZINC000563265674    0.0900
     28 H28        -9.3766    3.5063   49.1225 H       1  ZINC000563265674    0.0900
     29 H29        -5.6461    0.8869   50.7685 H       1  ZINC000563265674    0.0800
     30 H30        -5.0217    0.2337   52.3020 H       1  ZINC000563265674    0.0800
     31 H31        -6.7466    0.6442   52.1462 H       1  ZINC000563265674    0.0700
     32 H32        -3.8110    3.7538   52.2755 H       1  ZINC000563265674    0.0700
     33 H33        -3.3074    2.0497   52.3775 H       1  ZINC000563265674    0.0800
     34 H34        -3.9318    2.7030   50.8440 H       1  ZINC000563265674    0.0800
     35 H35        -4.8061    1.8956   54.2455 H       1  ZINC000563265674    0.3600
     36 H36        -7.6503    2.3004   53.6110 H       1  ZINC000563265674    0.1200
     37 H37        -6.8725    0.7984   54.1655 H       1  ZINC000563265674    0.0800
     38 H38        -5.5893    1.2014   56.4359 H       1  ZINC000563265674    0.4200
     39 H39        -7.7788    0.4890   58.4167 H       1  ZINC000563265674    0.1700
     40 H40        -7.3250    1.4654   63.1028 H       1  ZINC000563265674    0.1300
     41 H41        -8.1048   -0.1149   63.3535 H       1  ZINC000563265674    0.1400
     42 H42        -6.6244    0.0013   62.3721 H       1  ZINC000563265674    0.1400
     43 H43        -7.1551    3.2114   61.6389 H       1  ZINC000563265674    0.1500
     44 H44        -5.7470    4.6163   60.1891 H       1  ZINC000563265674    0.1500
@<TRIPOS>BOND
     1     1     2    1
     2     1    26    1
     3     1    27    1
     4     1    28    1
     5     2    25    1
     6     2     3    2
     7     3     4    1
     8     4     5    1
     9     5     6    1
    10     5    25    2
    11     6     7    1
    12     6     8    1
    13     6     9    1
    14     7    29    1
    15     7    30    1
    16     7    31    1
    17     8    32    1
    18     8    33    1
    19     8    34    1
    20     9    10    1
    21     9    35    1
    22    10    11    1
    23    10    36    1
    24    10    37    1
    25    11    12    2
    26    11    13   am
    27    13    14    1
    28    13    38    1
    29    14    23   ar
    30    14    15   ar
    31    15    16   ar
    32    15    39    1
    33    16    17    1
    34    16    21   ar
    35    17    18    1
    36    17    19    2
    37    17    20    2
    38    18    40    1
    39    18    41    1
    40    18    42    1
    41    21    22   ar
    42    21    43    1
    43    22    23   ar
    44    22    44    1
    45    23    24    1
@<TRIPOS>SUBSTRUCTURE
     1 ZINC000563265674        1 TEMP              0 ****  ****    0 ROOT


##########                                Name:    ZINC000006915700
##########                DOCK_Rotatable_Bonds:                   5
##########                         Heavy_Atoms:                  26
##########                    Molecular_Weight:             369.447
##########                DOCK_Rotatable_Bonds:                   5
##########                       Formal_Charge:        -1.04308e-07
##########                     HBond_Acceptors:                   8
##########                        HBond_Donors:                   1
##########                         Heavy_Atoms:                  26
##########                          Grid_Score:          -31.376875
##########                     Grid_vdw_energy:          -30.096491
##########                      Grid_es_energy:           -1.280383
##########           Internal_energy_repulsive:            3.384725

@<TRIPOS>MOLECULE
ZINC000006915700
 45 48 1 0 0
SMALL
USER_CHARGES


@<TRIPOS>ATOM
      1 C1        -10.3923    2.1732   53.2236 C.3     1  <0>        -0.1200
      2 C2         -8.9038    2.3016   53.0263 C.ar    1  <0>        -0.0500
      3 C3         -8.0704    1.2518   53.3690 C.ar    1  <0>        -0.1300
      4 C4         -6.7068    1.3631   53.1904 C.ar    1  <0>        -0.0600
      5 C5         -6.1689    2.5374   52.6632 C.ar    1  <0>        -0.0700
      6 C6         -4.7062    2.6632   52.4685 C.2     1  <0>         0.4400
      7 N7         -4.1215    2.0035   51.4772 N.2     1  <0>        -0.5200
      8 C8         -2.8025    2.1076   51.2889 C.2     1  <0>         0.3600
      9 C9         -1.9287    1.5539   50.3621 C.2     1  <0>        -0.3200
     10 C10        -0.6470    2.0239   50.6526 C.2     1  <0>         0.5500
     11 O11         0.3712    1.7435   50.0412 O.2     1  <0>        -0.5200
     12 N12        -0.7241    2.8401   51.7218 N.am    1  <0>        -0.5000
     13 N13        -2.0588    2.9057   52.1336 N.pl3   1  <0>        -0.3300
     14 C14        -2.6902    3.5717   53.1441 C.2     1  <0>         0.3900
     15 S15        -1.7707    4.5995   54.2410 S.3     1  <0>         0.1200
     16 C16        -0.8092    3.3417   55.1182 C.3     1  <0>        -0.1500
     17 C17         0.1798    4.0144   56.0350 C.2     1  <0>         0.5500
     18 O18         0.6943    5.0627   55.7076 O.2     1  <0>        -0.5200
     19 N19         0.4927    3.4509   57.2186 N.am    1  <0>        -0.6100
     20 C20        -0.0502    2.1862   57.7357 C.3     1  <0>         0.0900
     21 C21         0.5720    1.9561   59.1291 C.3     1  <0>        -0.1300
     22 C22         0.9958    3.3849   59.5607 C.3     1  <0>        -0.1400
     23 C23         1.4407    3.9974   58.2066 C.3     1  <0>         0.1000
     24 N24        -3.9997    3.4431   53.2902 N.2     1  <0>        -0.5600
     25 C25        -7.0145    3.5923   52.3197 C.ar    1  <0>        -0.0500
     26 C26        -8.3770    3.4668   52.4981 C.ar    1  <0>        -0.1300
     27 H27       -10.8433    1.7544   52.3239 H       1  <0>         0.0800
     28 H28       -10.5913    1.5154   54.0697 H       1  <0>         0.0700
     29 H29       -10.8191    3.1568   53.4198 H       1  <0>         0.0700
     30 H30        -8.4879    0.3434   53.7774 H       1  <0>         0.1300
     31 H31        -6.0571    0.5432   53.4586 H       1  <0>         0.1300
     32 H32        -2.1935    0.8801   49.5606 H       1  <0>         0.1800
     33 H33         0.0204    3.3040   52.1358 H       1  <0>         0.4400
     34 H34        -1.4806    2.7150   55.7052 H       1  <0>         0.1400
     35 H35        -0.2741    2.7245   54.3965 H       1  <0>         0.1400
     36 H36        -1.1346    2.2555   57.8208 H       1  <0>         0.0800
     37 H37         0.2198    1.3669   57.0693 H       1  <0>         0.0800
     38 H38        -0.1670    1.5482   59.8188 H       1  <0>         0.0900
     39 H39         1.4401    1.3006   59.0603 H       1  <0>         0.0800
     40 H40         0.1525    3.9319   59.9824 H       1  <0>         0.0800
     41 H41         1.8278    3.3501   60.2639 H       1  <0>         0.0900
     42 H42         2.4605    3.6939   57.9698 H       1  <0>         0.0800
     43 H43         1.3653    5.0842   58.2388 H       1  <0>         0.0800
     44 H44        -6.6040    4.5039   51.9111 H       1  <0>         0.1400
     45 H45        -9.0327    4.2826   52.2322 H       1  <0>         0.1300
@<TRIPOS>BOND
     1     1     2    1
     2     1    27    1
     3     1    28    1
     4     1    29    1
     5     2    26   ar
     6     2     3   ar
     7     3     4   ar
     8     3    30    1
     9     4     5   ar
    10     4    31    1
    11     5     6    1
    12     5    25   ar
    13     6    24    1
    14     6     7    2
    15     7     8    1
    16     8    13    1
    17     8     9    2
    18     9    10    1
    19     9    32    1
    20    10    11    2
    21    10    12   am
    22    12    13    1
    23    12    33    1
    24    13    14    1
    25    14    15    1
    26    14    24    2
    27    15    16    1
    28    16    17    1
    29    16    34    1
    30    16    35    1
    31    17    18    2
    32    17    19   am
    33    19    23    1
    34    19    20    1
    35    20    21    1
    36    20    36    1
    37    20    37    1
    38    21    22    1
    39    21    38    1
    40    21    39    1
    41    22    23    1
    42    22    40    1
    43    22    41    1
    44    23    42    1
    45    23    43    1
    46    25    26   ar
    47    25    44    1
    48    26    45    1
@<TRIPOS>SUBSTRUCTURE
     1 <0>         1 TEMP              0 ****  ****    0 ROOT


##########                                Name:    ZINC000503413572
##########                DOCK_Rotatable_Bonds:                   7
##########                         Heavy_Atoms:                  26
##########                    Molecular_Weight:             355.375
##########                DOCK_Rotatable_Bonds:                   7
##########                       Formal_Charge:        -1.71363e-07
##########                     HBond_Acceptors:                   9
##########                        HBond_Donors:                   1
##########                         Heavy_Atoms:                  26
##########                          Grid_Score:          -31.369162
##########                     Grid_vdw_energy:          -30.082357
##########                      Grid_es_energy:           -1.286805
##########           Internal_energy_repulsive:            8.662623

@<TRIPOS>MOLECULE
ZINC000503413572
 44 47 1 0 0
SMALL
USER_CHARGES


@<TRIPOS>ATOM
      1 C1         -9.7867   -3.0473   56.7614 C.3     1  ZINC000503413572   -0.1200
      2 C2        -11.1770   -2.4758   56.6546 C.ar    1  ZINC000503413572   -0.0200
      3 C3        -12.1545   -2.8652   57.5488 C.ar    1  ZINC000503413572   -0.1400
      4 C4        -13.4324   -2.3399   57.4513 C.ar    1  ZINC000503413572    0.1300
      5 F5        -14.3874   -2.7217   58.3274 F       1  ZINC000503413572   -0.1300
      6 C6        -13.7322   -1.4236   56.4575 C.ar    1  ZINC000503413572   -0.1400
      7 C7        -12.7570   -1.0319   55.5612 C.ar    1  ZINC000503413572   -0.0700
      8 C8        -11.4744   -1.5533   55.6605 C.ar    1  ZINC000503413572    0.1000
      9 N9        -10.4826   -1.1561   54.7515 N.pl3   1  ZINC000503413572   -0.3100
     10 C10        -9.5072   -0.2479   54.9697 C.2     1  ZINC000503413572    0.1100
     11 C11        -8.7713   -0.1751   53.8209 C.2     1  ZINC000503413572   -0.1000
     12 C12        -7.5985    0.6924   53.6016 C.2     1  ZINC000503413572    0.6100
     13 O13        -7.3891    1.6312   54.3454 O.2     1  ZINC000503413572   -0.5300
     14 N14        -6.7590    0.4443   52.5768 N.am    1  ZINC000503413572   -0.7200
     15 C15        -5.5933    1.3047   52.3601 C.3     1  ZINC000503413572    0.1100
     16 C16        -5.8830    2.2771   51.2150 C.3     1  ZINC000503413572    0.1000
     17 N17        -6.0196    3.6342   51.7496 N.pl3   1  ZINC000503413572   -0.4700
     18 C18        -5.2203    4.2341   52.6645 C.2     1  ZINC000503413572    0.1500
     19 N19        -5.6905    5.4356   52.8624 N.2     1  ZINC000503413572   -0.2900
     20 N20        -6.7304    5.6199   52.1288 N.2     1  ZINC000503413572   -0.2900
     21 C21        -6.9676    4.5463   51.4252 C.2     1  ZINC000503413572    0.2100
     22 C22        -8.0933    4.3536   50.4420 C.3     1  ZINC000503413572   -0.1000
     23 C23        -9.3509    3.6380   50.9392 C.3     1  ZINC000503413572   -0.1500
     24 C24        -9.3810    5.1453   50.6783 C.3     1  ZINC000503413572   -0.1600
     25 N25        -9.2965   -1.0275   52.9242 N.2     1  ZINC000503413572   -0.2000
     26 N26       -10.3090   -1.6300   53.4434 N.2     1  ZINC000503413572   -0.0400
     27 H27        -9.1590   -2.3702   57.3408 H       1  ZINC000503413572    0.0900
     28 H28        -9.8295   -4.0170   57.2574 H       1  ZINC000503413572    0.0800
     29 H29        -9.3658   -3.1681   55.7632 H       1  ZINC000503413572    0.0700
     30 H30       -11.9225   -3.5800   58.3244 H       1  ZINC000503413572    0.1500
     31 H31       -14.7293   -1.0154   56.3827 H       1  ZINC000503413572    0.1500
     32 H32       -12.9913   -0.3175   54.7859 H       1  ZINC000503413572    0.1500
     33 H33        -9.3411    0.3133   55.8774 H       1  ZINC000503413572    0.2100
     34 H34        -6.9267   -0.3040   51.9827 H       1  ZINC000503413572    0.4100
     35 H35        -5.3826    1.8671   53.2698 H       1  ZINC000503413572    0.0800
     36 H36        -4.7302    0.6898   52.1050 H       1  ZINC000503413572    0.0800
     37 H37        -5.0620    2.2497   50.4985 H       1  ZINC000503413572    0.1100
     38 H38        -6.8088    1.9876   50.7179 H       1  ZINC000503413572    0.1100
     39 H39        -4.3551    3.7987   53.1421 H       1  ZINC000503413572    0.2200
     40 H40        -7.7909    4.1811   49.4090 H       1  ZINC000503413572    0.1200
     41 H41        -9.8760    2.9945   50.2334 H       1  ZINC000503413572    0.1100
     42 H42        -9.3640    3.3066   51.9776 H       1  ZINC000503413572    0.1100
     43 H43        -9.4141    5.8056   51.5449 H       1  ZINC000503413572    0.1000
     44 H44        -9.9259    5.4934   49.8008 H       1  ZINC000503413572    0.1100
@<TRIPOS>BOND
     1     1     2    1
     2     1    27    1
     3     1    28    1
     4     1    29    1
     5     2     8   ar
     6     2     3   ar
     7     3     4   ar
     8     3    30    1
     9     4     5    1
    10     4     6   ar
    11     6     7   ar
    12     6    31    1
    13     7     8   ar
    14     7    32    1
    15     8     9    1
    16     9    26    1
    17     9    10    1
    18    10    11    2
    19    10    33    1
    20    11    12    1
    21    11    25    1
    22    12    13    2
    23    12    14   am
    24    14    15    1
    25    14    34    1
    26    15    16    1
    27    15    35    1
    28    15    36    1
    29    16    17    1
    30    16    37    1
    31    16    38    1
    32    17    21    1
    33    17    18    1
    34    18    19    2
    35    18    39    1
    36    19    20    1
    37    20    21    2
    38    21    22    1
    39    22    24    1
    40    22    23    1
    41    22    40    1
    42    23    24    1
    43    23    41    1
    44    23    42    1
    45    24    43    1
    46    24    44    1
    47    25    26    2
@<TRIPOS>SUBSTRUCTURE
     1 ZINC000503413572        1 TEMP              0 ****  ****    0 ROOT


##########                                Name:    ZINC000609484313
##########                DOCK_Rotatable_Bonds:                  10
##########                         Heavy_Atoms:                  26
##########                    Molecular_Weight:             361.487
##########                DOCK_Rotatable_Bonds:                  10
##########                       Formal_Charge:          -0.0200004
##########                     HBond_Acceptors:                   7
##########                        HBond_Donors:                   1
##########                         Heavy_Atoms:                  26
##########                          Grid_Score:          -31.329849
##########                     Grid_vdw_energy:          -30.601393
##########                      Grid_es_energy:           -0.728456
##########           Internal_energy_repulsive:           32.873596

@<TRIPOS>MOLECULE
ZINC000609484313
 57 58 1 0 0
SMALL
USER_CHARGES


@<TRIPOS>ATOM
      1 C1        -11.3515   -3.5835   57.8424 C.3     1  ZINC000609484313   -0.1500
      2 C2        -11.2535   -2.0580   57.9072 C.3     1  ZINC000609484313   -0.1300
      3 C3        -11.6277   -1.4647   56.5474 C.3     1  ZINC000609484313   -0.1100
      4 C4        -10.4279   -1.5579   55.6027 C.3     1  ZINC000609484313   -0.1100
      5 C5        -10.3087   -0.2608   54.8000 C.3     1  ZINC000609484313    0.0800
      6 H6        -10.2526    0.5859   55.4841 H       1  ZINC000609484313    0.1200
      7 C7         -9.0627   -0.3064   53.9537 C.2     1  ZINC000609484313    0.4900
      8 O8         -8.6934   -1.3573   53.4741 O.2     1  ZINC000609484313   -0.5000
      9 N9         -8.3584    0.8208   53.7300 N.am    1  ZINC000609484313   -0.6300
     10 C10        -7.2059    0.7789   52.9451 C.2     1  ZINC000609484313    0.2400
     11 N11        -6.7882   -0.2233   52.2172 N.2     1  ZINC000609484313   -0.3900
     12 O12        -5.7542    0.0425   51.6495 O.3     1  ZINC000609484313    0.1000
     13 C13        -5.3380    1.2856   51.9315 C.2     1  ZINC000609484313   -0.0200
     14 C14        -4.0959    1.9598   51.4085 C.3     1  ZINC000609484313   -0.0800
     15 C15        -6.2540    1.8187   52.7719 C.2     1  ZINC000609484313   -0.2300
     16 N16       -11.4847   -0.1121   53.9323 N.3     1  ZINC000609484313   -0.5000
     17 C17       -11.3784   -0.9763   52.7485 C.3     1  ZINC000609484313    0.0400
     18 C18       -12.6548   -0.8521   51.9133 C.3     1  ZINC000609484313    0.0500
     19 N19       -12.8465    0.5513   51.5219 N.3     1  ZINC000609484313   -0.5100
     20 C20       -14.0225    0.7000   50.6542 C.3     1  ZINC000609484313    0.1800
     21 H21       -13.9495    0.0018   49.8203 H       1  ZINC000609484313    0.1200
     22 C22       -15.2421    0.4149   51.4276 C.1     1  ZINC000609484313    0.1700
     23 N23       -16.1832    0.1948   52.0245 N.1     1  ZINC000609484313   -0.4200
     24 C24       -14.0823    2.1314   50.1170 C.3     1  ZINC000609484313   -0.0800
     25 C25       -12.7565    2.4761   49.4355 C.3     1  ZINC000609484313   -0.1400
     26 C26       -15.2224    2.2485   49.1033 C.3     1  ZINC000609484313   -0.1500
     27 C27       -12.9528    1.4154   52.7057 C.3     1  ZINC000609484313    0.0500
     28 C28       -11.6764    1.2913   53.5409 C.3     1  ZINC000609484313    0.0400
     29 H29       -12.3717   -3.8715   57.5888 H       1  ZINC000609484313    0.0500
     30 H30       -10.6679   -3.9595   57.0813 H       1  ZINC000609484313    0.0500
     31 H31       -11.0849   -4.0061   58.8111 H       1  ZINC000609484313    0.0500
     32 H32       -11.9371   -1.6819   58.6683 H       1  ZINC000609484313    0.0600
     33 H33       -10.2333   -1.7699   58.1609 H       1  ZINC000609484313    0.0600
     34 H34       -12.4656   -2.0204   56.1266 H       1  ZINC000609484313    0.0800
     35 H35       -11.9111   -0.4196   56.6727 H       1  ZINC000609484313    0.0600
     36 H36        -9.5186   -1.7102   56.1841 H       1  ZINC000609484313    0.0700
     37 H37       -10.5672   -2.3961   54.9200 H       1  ZINC000609484313    0.0800
     38 H38        -8.6531    1.6611   54.1145 H       1  ZINC000609484313    0.4200
     39 H39        -3.5628    1.2766   50.7473 H       1  ZINC000609484313    0.0800
     40 H40        -4.3748    2.8569   50.8558 H       1  ZINC000609484313    0.0900
     41 H41        -3.4517    2.2335   52.2442 H       1  ZINC000609484313    0.0900
     42 H42        -6.2571    2.8038   53.2143 H       1  ZINC000609484313    0.1900
     43 H43       -10.5208   -0.6691   52.1500 H       1  ZINC000609484313    0.0800
     44 H44       -11.2497   -2.0116   53.0644 H       1  ZINC000609484313    0.0800
     45 H45       -12.5663   -1.4701   51.0197 H       1  ZINC000609484313    0.0900
     46 H46       -13.5090   -1.1851   52.5029 H       1  ZINC000609484313    0.0400
     47 H47       -14.2572    2.8220   50.9420 H       1  ZINC000609484313    0.0800
     48 H48       -12.5816    1.7854   48.6106 H       1  ZINC000609484313    0.0600
     49 H49       -12.7991    3.4958   49.0528 H       1  ZINC000609484313    0.0500
     50 H50       -11.9443    2.3927   50.1577 H       1  ZINC000609484313    0.0700
     51 H51       -15.2066    3.2405   48.6520 H       1  ZINC000609484313    0.0700
     52 H52       -15.0970    1.4940   48.3268 H       1  ZINC000609484313    0.0600
     53 H53       -16.1755    2.0945   49.6091 H       1  ZINC000609484313    0.0500
     54 H54       -13.0816    2.4508   52.3899 H       1  ZINC000609484313    0.0900
     55 H55       -13.8104    1.1083   53.3043 H       1  ZINC000609484313    0.0400
     56 H56       -11.7649    1.9092   54.4345 H       1  ZINC000609484313    0.0800
     57 H57       -10.8222    1.6243   52.9513 H       1  ZINC000609484313    0.0800
@<TRIPOS>BOND
     1     1     2    1
     2     1    29    1
     3     1    30    1
     4     1    31    1
     5     2     3    1
     6     2    32    1
     7     2    33    1
     8     3     4    1
     9     3    34    1
    10     3    35    1
    11     4     5    1
    12     4    36    1
    13     4    37    1
    14     5     6    1
    15     5     7    1
    16     5    16    1
    17     7     8    2
    18     7     9   am
    19     9    10    1
    20     9    38    1
    21    10    15    1
    22    10    11    2
    23    11    12    1
    24    12    13    1
    25    13    14    1
    26    13    15    2
    27    14    39    1
    28    14    40    1
    29    14    41    1
    30    15    42    1
    31    16    28    1
    32    16    17    1
    33    17    18    1
    34    17    43    1
    35    17    44    1
    36    18    19    1
    37    18    45    1
    38    18    46    1
    39    19    20    1
    40    19    27    1
    41    20    21    1
    42    20    22    1
    43    20    24    1
    44    22    23    3
    45    24    25    1
    46    24    26    1
    47    24    47    1
    48    25    48    1
    49    25    49    1
    50    25    50    1
    51    26    51    1
    52    26    52    1
    53    26    53    1
    54    27    28    1
    55    27    54    1
    56    27    55    1
    57    28    56    1
    58    28    57    1
@<TRIPOS>SUBSTRUCTURE
     1 ZINC000609484313        1 TEMP              0 ****  ****    0 ROOT


##########                                Name:    ZINC000190927708
##########                DOCK_Rotatable_Bonds:                  10
##########                         Heavy_Atoms:                  26
##########                    Molecular_Weight:             358.437
##########                DOCK_Rotatable_Bonds:                  10
##########                       Formal_Charge:           0.0499998
##########                     HBond_Acceptors:                   6
##########                        HBond_Donors:                   1
##########                         Heavy_Atoms:                  26
##########                          Grid_Score:          -31.324461
##########                     Grid_vdw_energy:          -29.298441
##########                      Grid_es_energy:           -2.026020
##########           Internal_energy_repulsive:           25.906084

@<TRIPOS>MOLECULE
ZINC000190927708
 52 53 1 0 0
SMALL
USER_CHARGES


@<TRIPOS>ATOM
      1 C1        -11.9848   -0.1990   55.0588 C.3     1  ZINC000190927708   -0.1500
      2 C2        -11.3186   -0.1357   56.4348 C.3     1  ZINC000190927708   -0.1500
      3 C3        -12.3933   -0.1632   57.5234 C.3     1  ZINC000190927708    0.1000
      4 N4        -12.0538   -1.1827   58.5192 N.am    1  ZINC000190927708   -0.5900
      5 C5        -11.1672   -0.9028   59.4950 C.2     1  ZINC000190927708    0.5300
      6 O6        -10.8873   -1.7463   60.3201 O.2     1  ZINC000190927708   -0.5300
      7 C7        -10.5240    0.4584   59.5607 C.3     1  ZINC000190927708   -0.0800
      8 C8         -9.4882    0.4722   60.6553 C.2     1  ZINC000190927708   -0.1700
      9 C9         -9.8574    0.7448   61.9312 C.2     1  ZINC000190927708    0.0000
     10 C10        -8.8271    0.7499   62.9714 C.ar    1  ZINC000190927708   -0.1300
     11 C11        -9.1469    1.0229   64.3051 C.ar    1  ZINC000190927708   -0.0500
     12 C12        -8.1621    1.0190   65.2523 C.ar    1  ZINC000190927708   -0.1500
     13 C13        -6.8469    0.7466   64.9025 C.ar    1  ZINC000190927708   -0.0600
     14 C14        -6.5085    0.4753   63.5941 C.ar    1  ZINC000190927708   -0.1600
     15 C15        -7.4941    0.4731   62.6128 C.ar    1  ZINC000190927708    0.1900
     16 N16        -7.1841    0.2045   61.2965 N.am    1  ZINC000190927708   -0.6300
     17 C17        -8.1384    0.1958   60.3493 C.2     1  ZINC000190927708    0.5500
     18 O18        -7.8281   -0.0456   59.1956 O.2     1  ZINC000190927708   -0.5300
     19 C19       -12.6778   -2.5066   58.4542 C.3     1  ZINC000190927708    0.1500
     20 H20       -12.4990   -3.0388   59.3886 H       1  ZINC000190927708    0.1400
     21 C21       -12.0741   -3.2985   57.2927 C.3     1  ZINC000190927708   -0.1300
     22 C22       -10.6360   -3.6916   57.6362 C.3     1  ZINC000190927708   -0.1500
     23 C23       -14.1615   -2.3526   58.2399 C.2     1  ZINC000190927708    0.4500
     24 O24       -14.7974   -1.5976   58.9367 O.2     1  ZINC000190927708   -0.5000
     25 O25       -14.7766   -3.0541   57.2749 O.3     1  ZINC000190927708   -0.3500
     26 C26       -16.2210   -2.9329   57.1905 C.3     1  ZINC000190927708    0.0600
     27 C27       -16.5836   -1.5983   56.5361 C.3     1  ZINC000190927708   -0.1500
     28 H28       -12.6480    0.6573   54.9365 H       1  ZINC000190927708    0.0600
     29 H29       -11.2192   -0.1795   54.2833 H       1  ZINC000190927708    0.0600
     30 H30       -12.5618   -1.1201   54.9766 H       1  ZINC000190927708    0.0600
     31 H31       -10.6555   -0.9921   56.5572 H       1  ZINC000190927708    0.0800
     32 H32       -10.7416    0.7854   56.5171 H       1  ZINC000190927708    0.0700
     33 H33       -12.4466    0.8126   58.0062 H       1  ZINC000190927708    0.0900
     34 H34       -13.3583   -0.4001   57.0755 H       1  ZINC000190927708    0.0900
     35 H35       -10.0470    0.6814   58.6063 H       1  ZINC000190927708    0.1100
     36 H36       -11.2849    1.2101   59.7710 H       1  ZINC000190927708    0.1200
     37 H37       -10.8886    0.9536   62.1748 H       1  ZINC000190927708    0.1400
     38 H38       -10.1679    1.2361   64.5853 H       1  ZINC000190927708    0.1400
     39 H39        -8.4093    1.2303   66.2822 H       1  ZINC000190927708    0.1300
     40 H40        -6.0804    0.7476   65.6635 H       1  ZINC000190927708    0.1300
     41 H41        -5.4822    0.2645   63.3321 H       1  ZINC000190927708    0.1300
     42 H42        -6.2651    0.0149   61.0509 H       1  ZINC000190927708    0.4200
     43 H43       -12.6653   -4.1978   57.1200 H       1  ZINC000190927708    0.0900
     44 H44       -12.0775   -2.6833   56.3929 H       1  ZINC000190927708    0.0800
     45 H45       -10.2059   -4.2558   56.8086 H       1  ZINC000190927708    0.0600
     46 H46       -10.0449   -2.7923   57.8089 H       1  ZINC000190927708    0.0600
     47 H47       -10.6327   -4.3069   58.5360 H       1  ZINC000190927708    0.0600
     48 H48       -16.6199   -3.7516   56.5915 H       1  ZINC000190927708    0.0700
     49 H49       -16.6482   -2.9743   58.1925 H       1  ZINC000190927708    0.0700
     50 H50       -16.1848   -0.7797   57.1352 H       1  ZINC000190927708    0.0700
     51 H51       -16.1564   -1.5570   55.5342 H       1  ZINC000190927708    0.0700
     52 H52       -17.6680   -1.5074   56.4729 H       1  ZINC000190927708    0.0800
@<TRIPOS>BOND
     1     1     2    1
     2     1    28    1
     3     1    29    1
     4     1    30    1
     5     2     3    1
     6     2    31    1
     7     2    32    1
     8     3     4    1
     9     3    33    1
    10     3    34    1
    11     4     5   am
    12     4    19    1
    13     5     6    2
    14     5     7    1
    15     7     8    1
    16     7    35    1
    17     7    36    1
    18     8    17    1
    19     8     9    2
    20     9    10    1
    21     9    37    1
    22    10    15   ar
    23    10    11   ar
    24    11    12   ar
    25    11    38    1
    26    12    13   ar
    27    12    39    1
    28    13    14   ar
    29    13    40    1
    30    14    15   ar
    31    14    41    1
    32    15    16    1
    33    16    17   am
    34    16    42    1
    35    17    18    2
    36    19    20    1
    37    19    21    1
    38    19    23    1
    39    21    22    1
    40    21    43    1
    41    21    44    1
    42    22    45    1
    43    22    46    1
    44    22    47    1
    45    23    24    2
    46    23    25    1
    47    25    26    1
    48    26    27    1
    49    26    48    1
    50    26    49    1
    51    27    50    1
    52    27    51    1
    53    27    52    1
@<TRIPOS>SUBSTRUCTURE
     1 ZINC000190927708        1 TEMP              0 ****  ****    0 ROOT


##########                                Name:    ZINC000991934963
##########                DOCK_Rotatable_Bonds:                   8
##########                         Heavy_Atoms:                  27
##########                    Molecular_Weight:             370.495
##########                DOCK_Rotatable_Bonds:                   8
##########                       Formal_Charge:          -0.0499997
##########                     HBond_Acceptors:                   6
##########                        HBond_Donors:                   1
##########                         Heavy_Atoms:                  27
##########                          Grid_Score:          -31.281387
##########                     Grid_vdw_energy:          -30.926535
##########                      Grid_es_energy:           -0.354852
##########           Internal_energy_repulsive:           20.720203

@<TRIPOS>MOLECULE
ZINC000991934963
 57 61 1 0 0
SMALL
USER_CHARGES


@<TRIPOS>ATOM
      1 C1        -10.2443   -3.9546   57.6846 C.3     1  ZINC000991934963    0.0400
      2 O2         -9.4252   -3.2409   56.7561 O.3     1  ZINC000991934963   -0.2900
      3 C3         -9.9574   -2.1287   56.1951 C.ar    1  ZINC000991934963    0.5000
      4 N4        -11.1208   -1.6775   56.6348 N.ar    1  ZINC000991934963   -0.5700
      5 C5        -11.6688   -0.5941   56.1092 C.ar    1  ZINC000991934963    0.1900
      6 C6        -11.0088    0.0687   55.0868 C.ar    1  ZINC000991934963   -0.2700
      7 C7         -9.7919   -0.4317   54.6509 C.ar    1  ZINC000991934963    0.2200
      8 C8         -9.0377    0.2553   53.5418 C.3     1  ZINC000991934963    0.1000
      9 N9         -7.9835    1.1012   54.1173 N.3     1  ZINC000991934963   -0.4900
     10 C10        -8.5664    2.3191   54.7644 C.3     1  ZINC000991934963    0.0400
     11 C11        -7.8109    3.5456   54.1631 C.3     1  ZINC000991934963   -0.1400
     12 C12        -6.5007    2.8999   53.7169 C.3     1  ZINC000991934963    0.1700
     13 N13        -5.5931    2.6483   54.8391 N.am    1  ZINC000991934963   -0.7000
     14 C14        -5.0401    3.6823   55.5036 C.2     1  ZINC000991934963    0.5200
     15 O15        -5.2927    4.8211   55.1716 O.2     1  ZINC000991934963   -0.5300
     16 C16        -4.1079    3.4234   56.6590 C.3     1  ZINC000991934963   -0.1100
     17 C17        -2.6602    3.5935   56.1943 C.3     1  ZINC000991934963   -0.1300
     18 H18        -1.9227    2.9895   56.7230 H       1  ZINC000991934963    0.1200
     19 C19        -2.2281    4.9835   55.7230 C.3     1  ZINC000991934963   -0.1700
     20 C20        -2.4221    3.8562   54.7059 C.3     1  ZINC000991934963   -0.1200
     21 H21        -3.2969    3.9081   54.0578 H       1  ZINC000991934963    0.1000
     22 C22        -1.1670    3.2517   54.0732 C.3     1  ZINC000991934963   -0.1200
     23 C23        -1.1206    3.1578   52.5468 C.3     1  ZINC000991934963   -0.1800
     24 C24        -0.2566    4.1883   53.2764 C.3     1  ZINC000991934963   -0.1800
     25 C25        -5.7800    3.4294   52.4818 C.3     1  ZINC000991934963   -0.1200
     26 C26        -5.0893    2.1473   51.9211 C.3     1  ZINC000991934963   -0.1200
     27 C27        -5.9451    0.9461   52.4260 C.3     1  ZINC000991934963   -0.1000
     28 C28        -7.1088    1.5859   53.1046 C.3     1  ZINC000991934963    0.0500
     29 H29        -7.7564    1.9528   52.3082 H       1  ZINC000991934963    0.0400
     30 N30        -9.2983   -1.5169   55.2243 N.ar    1  ZINC000991934963   -0.5000
     31 H31       -11.1553   -4.2854   57.1858 H       1  ZINC000991934963    0.0600
     32 H32        -9.6993   -4.8216   58.0581 H       1  ZINC000991934963    0.1100
     33 H33       -10.5029   -3.3012   58.5179 H       1  ZINC000991934963    0.0600
     34 H34       -12.6190   -0.2309   56.4722 H       1  ZINC000991934963    0.1700
     35 H35       -11.4332    0.9553   54.6393 H       1  ZINC000991934963    0.1500
     36 H36        -8.5873   -0.4938   52.8904 H       1  ZINC000991934963    0.1000
     37 H37        -9.7246    0.8735   52.9639 H       1  ZINC000991934963    0.0600
     38 H38        -9.6307    2.3887   54.5393 H       1  ZINC000991934963    0.0600
     39 H39        -8.4140    2.2784   55.8430 H       1  ZINC000991934963    0.0800
     40 H40        -8.3523    3.9610   53.3131 H       1  ZINC000991934963    0.0800
     41 H41        -7.6336    4.3072   54.9225 H       1  ZINC000991934963    0.0900
     42 H42        -5.3901    1.7374   55.1039 H       1  ZINC000991934963    0.4000
     43 H43        -4.3177    4.1315   57.4607 H       1  ZINC000991934963    0.1000
     44 H44        -4.2553    2.4071   57.0241 H       1  ZINC000991934963    0.0900
     45 H45        -2.9752    5.7768   55.7441 H       1  ZINC000991934963    0.0900
     46 H46        -1.2062    5.2939   55.9415 H       1  ZINC000991934963    0.1000
     47 H47        -0.6925    2.4519   54.6417 H       1  ZINC000991934963    0.1000
     48 H48        -0.6155    2.2959   52.1108 H       1  ZINC000991934963    0.0900
     49 H49        -1.9842    3.5266   51.9934 H       1  ZINC000991934963    0.0900
     50 H50        -0.5517    5.2350   53.2030 H       1  ZINC000991934963    0.0900
     51 H51         0.8170    4.0044   53.3204 H       1  ZINC000991934963    0.0900
     52 H52        -6.4914    3.8328   51.7613 H       1  ZINC000991934963    0.0800
     53 H53        -5.0387    4.1796   52.7575 H       1  ZINC000991934963    0.0800
     54 H54        -5.0810    2.1709   50.8314 H       1  ZINC000991934963    0.0700
     55 H55        -4.0716    2.0707   52.3038 H       1  ZINC000991934963    0.0700
     56 H56        -6.2806    0.3373   51.5865 H       1  ZINC000991934963    0.0700
     57 H57        -5.3759    0.3426   53.1328 H       1  ZINC000991934963    0.0700
@<TRIPOS>BOND
     1     1     2    1
     2     1    31    1
     3     1    32    1
     4     1    33    1
     5     2     3    1
     6     3    30   ar
     7     3     4   ar
     8     4     5   ar
     9     5     6   ar
    10     5    34    1
    11     6     7   ar
    12     6    35    1
    13     7     8    1
    14     7    30   ar
    15     8     9    1
    16     8    36    1
    17     8    37    1
    18     9    28    1
    19     9    10    1
    20    10    11    1
    21    10    38    1
    22    10    39    1
    23    11    12    1
    24    11    40    1
    25    11    41    1
    26    12    28    1
    27    12    13    1
    28    12    25    1
    29    13    14   am
    30    13    42    1
    31    14    15    2
    32    14    16    1
    33    16    17    1
    34    16    43    1
    35    16    44    1
    36    17    18    1
    37    17    20    1
    38    17    19    1
    39    19    20    1
    40    19    45    1
    41    19    46    1
    42    20    21    1
    43    20    22    1
    44    22    24    1
    45    22    23    1
    46    22    47    1
    47    23    24    1
    48    23    48    1
    49    23    49    1
    50    24    50    1
    51    24    51    1
    52    25    26    1
    53    25    52    1
    54    25    53    1
    55    26    27    1
    56    26    54    1
    57    26    55    1
    58    27    28    1
    59    27    56    1
    60    27    57    1
    61    28    29    1
@<TRIPOS>SUBSTRUCTURE
     1 ZINC000991934963        1 TEMP              0 ****  ****    0 ROOT


##########                                Name:    ZINC001340305486
##########                DOCK_Rotatable_Bonds:                   8
##########                         Heavy_Atoms:                  27
##########                    Molecular_Weight:             378.431
##########                DOCK_Rotatable_Bonds:                   8
##########                       Formal_Charge:          0.00999955
##########                     HBond_Acceptors:                  10
##########                        HBond_Donors:                   2
##########                         Heavy_Atoms:                  27
##########                          Grid_Score:          -31.273880
##########                     Grid_vdw_energy:          -30.707102
##########                      Grid_es_energy:           -0.566779
##########           Internal_energy_repulsive:           10.913971

@<TRIPOS>MOLECULE
ZINC001340305486
 53 55 1 0 0
SMALL
USER_CHARGES


@<TRIPOS>ATOM
      1 C1         -8.6085    3.0395   59.8019 C.3     1  ZINC001340305486    0.0900
      2 N2         -9.0953    1.6578   59.8006 N.am    1  ZINC001340305486   -0.7300
      3 C3        -10.1811    1.3265   59.0740 C.2     1  ZINC001340305486    0.5200
      4 O4        -10.7560    2.1726   58.4224 O.2     1  ZINC001340305486   -0.5100
      5 C5        -10.6807   -0.0953   59.0712 C.3     1  ZINC001340305486    0.0600
      6 H6         -9.8890   -0.7600   59.4166 H       1  ZINC001340305486    0.0900
      7 C7        -11.0960   -0.4892   57.6492 C.3     1  ZINC001340305486    0.0900
      8 N8        -11.7509   -1.8058   57.7049 N.am    1  ZINC001340305486   -0.5800
      9 C9        -11.3718   -2.8046   56.8833 C.2     1  ZINC001340305486    0.5100
     10 O10       -11.9246   -3.8833   56.9442 O.2     1  ZINC001340305486   -0.5200
     11 C11       -10.2706   -2.5839   55.8973 C.2     1  ZINC001340305486    0.5200
     12 O12        -9.1710   -3.0555   56.1001 O.2     1  ZINC001340305486   -0.5000
     13 N13       -10.4988   -1.8612   54.7829 N.am    1  ZINC001340305486   -0.6900
     14 C14        -9.4188   -1.6434   53.8171 C.3     1  ZINC001340305486    0.1200
     15 C15        -9.2161   -0.1413   53.6090 C.3     1  ZINC001340305486   -0.0400
     16 C16        -7.8930    0.0973   52.9280 C.2     1  ZINC001340305486    0.1700
     17 N17        -7.1121   -0.8129   52.4087 N.2     1  ZINC001340305486   -0.2800
     18 N18        -6.0679   -0.2529   51.9051 N.2     1  ZINC001340305486   -0.2900
     19 C19        -6.1396    1.0364   52.0765 C.2     1  ZINC001340305486    0.1900
     20 C20        -5.1458    2.0723   51.6191 C.3     1  ZINC001340305486   -0.0400
     21 C21        -4.8696    3.0441   52.7702 C.3     1  ZINC001340305486   -0.1200
     22 C22        -5.8844    4.1827   52.7326 C.3     1  ZINC001340305486   -0.1300
     23 C23        -7.2339    3.6803   52.2217 C.3     1  ZINC001340305486   -0.1400
     24 C24        -7.7768    2.6051   53.1672 C.3     1  ZINC001340305486    0.1000
     25 N25        -7.2941    1.2932   52.7345 N.pl3   1  ZINC001340305486   -0.4600
     26 C26       -12.8325   -1.9994   58.6838 C.3     1  ZINC001340305486    0.0200
     27 C27       -12.3326   -1.5319   60.0554 C.3     1  ZINC001340305486    0.0500
     28 O28       -11.8104   -0.2060   59.9403 O.3     1  ZINC001340305486   -0.3500
     29 H29        -8.3449    3.3328   58.7857 H       1  ZINC001340305486    0.0600
     30 H30        -9.3895    3.6996   60.1795 H       1  ZINC001340305486    0.0600
     31 H31        -7.7290    3.1143   60.4414 H       1  ZINC001340305486    0.0800
     32 H32        -8.6362    0.9814   60.3226 H       1  ZINC001340305486    0.4000
     33 H33       -11.7914    0.2502   57.2517 H       1  ZINC001340305486    0.0900
     34 H34       -10.2140   -0.5447   57.0112 H       1  ZINC001340305486    0.1100
     35 H35       -11.3780   -1.4853   54.6202 H       1  ZINC001340305486    0.4200
     36 H36        -8.4974   -2.0853   54.1967 H       1  ZINC001340305486    0.0900
     37 H37        -9.6810   -2.1097   52.8675 H       1  ZINC001340305486    0.0800
     38 H38       -10.0208    0.2512   52.9874 H       1  ZINC001340305486    0.0900
     39 H39        -9.2237    0.3637   54.5750 H       1  ZINC001340305486    0.1100
     40 H40        -4.2176    1.5822   51.3251 H       1  ZINC001340305486    0.1000
     41 H41        -5.5549    2.6199   50.7699 H       1  ZINC001340305486    0.0900
     42 H42        -4.9526    2.5151   53.7196 H       1  ZINC001340305486    0.0600
     43 H43        -3.8635    3.4510   52.6684 H       1  ZINC001340305486    0.0800
     44 H44        -6.0081    4.5877   53.7369 H       1  ZINC001340305486    0.0700
     45 H45        -5.5192    4.9683   52.0710 H       1  ZINC001340305486    0.0800
     46 H46        -7.9371    4.5120   52.1767 H       1  ZINC001340305486    0.0900
     47 H47        -7.1097    3.2573   51.2248 H       1  ZINC001340305486    0.0800
     48 H48        -7.4337    2.8063   54.1820 H       1  ZINC001340305486    0.0900
     49 H49        -8.8665    2.6158   53.1426 H       1  ZINC001340305486    0.1000
     50 H50       -13.7026   -1.4121   58.3903 H       1  ZINC001340305486    0.0800
     51 H51       -13.1003   -3.0550   58.7309 H       1  ZINC001340305486    0.1700
     52 H52       -13.1595   -1.5371   60.7655 H       1  ZINC001340305486    0.1200
     53 H53       -11.5474   -2.2025   60.4047 H       1  ZINC001340305486    0.0600
@<TRIPOS>BOND
     1     1     2    1
     2     1    29    1
     3     1    30    1
     4     1    31    1
     5     2     3   am
     6     2    32    1
     7     3     4    2
     8     3     5    1
     9     5     6    1
    10     5    28    1
    11     5     7    1
    12     7     8    1
    13     7    33    1
    14     7    34    1
    15     8     9   am
    16     8    26    1
    17     9    10    2
    18     9    11    1
    19    11    12    2
    20    11    13   am
    21    13    14    1
    22    13    35    1
    23    14    15    1
    24    14    36    1
    25    14    37    1
    26    15    16    1
    27    15    38    1
    28    15    39    1
    29    16    25    1
    30    16    17    2
    31    17    18    1
    32    18    19    2
    33    19    25    1
    34    19    20    1
    35    20    21    1
    36    20    40    1
    37    20    41    1
    38    21    22    1
    39    21    42    1
    40    21    43    1
    41    22    23    1
    42    22    44    1
    43    22    45    1
    44    23    24    1
    45    23    46    1
    46    23    47    1
    47    24    25    1
    48    24    48    1
    49    24    49    1
    50    26    27    1
    51    26    50    1
    52    26    51    1
    53    27    28    1
    54    27    52    1
    55    27    53    1
@<TRIPOS>SUBSTRUCTURE
     1 ZINC001340305486        1 TEMP              0 ****  ****    0 ROOT


##########                                Name:    ZINC001143596311
##########                DOCK_Rotatable_Bonds:                   9
##########                         Heavy_Atoms:                  21
##########                    Molecular_Weight:             335.811
##########                DOCK_Rotatable_Bonds:                   9
##########                       Formal_Charge:          0.00999959
##########                     HBond_Acceptors:                   9
##########                        HBond_Donors:                   3
##########                         Heavy_Atoms:                  21
##########                          Grid_Score:          -31.265097
##########                     Grid_vdw_energy:          -30.549767
##########                      Grid_es_energy:           -0.715330
##########           Internal_energy_repulsive:           11.867325

@<TRIPOS>MOLECULE
ZINC001143596311
 39 39 1 0 0
SMALL
USER_CHARGES


@<TRIPOS>ATOM
      1 C1          3.0312   -0.2906   47.0033 C.3     1  ZINC001143596311    0.0400
      2 O2          4.1416   -0.1856   47.8967 O.3     1  ZINC001143596311   -0.2600
      3 N3          3.7802   -0.2932   49.3102 N.3     1  ZINC001143596311   -0.3700
      4 C4          4.5818   -1.3252   49.9815 C.3     1  ZINC001143596311    0.0000
      5 C5          3.9162    1.0028   49.9884 C.3     1  ZINC001143596311    0.0400
      6 C6          2.6723    1.2661   50.8395 C.3     1  ZINC001143596311   -0.1300
      7 C7          1.6151    1.9762   49.9916 C.3     1  ZINC001143596311    0.1200
      8 N8          0.5399    2.4636   50.8591 N.am    1  ZINC001143596311   -0.7200
      9 C9         -0.7332    2.0837   50.6327 C.2     1  ZINC001143596311    0.5600
     10 O10        -0.9891    1.3354   49.7095 O.2     1  ZINC001143596311   -0.5200
     11 C11        -1.8180    2.5767   51.5068 C.ar    1  ZINC001143596311   -0.1500
     12 C12        -1.5148    3.3234   52.6467 C.ar    1  ZINC001143596311   -0.0200
     13 C13        -2.5314    3.7808   53.4586 C.ar    1  ZINC001143596311   -0.1300
     14 C14        -3.8510    3.5004   53.1452 C.ar    1  ZINC001143596311    0.0700
     15 Cl15       -5.1253    4.0796   54.1720 Cl      1  ZINC001143596311   -0.0200
     16 C16        -4.1581    2.7600   52.0153 C.ar    1  ZINC001143596311   -0.6800
     17 S17        -5.8400    2.4089   51.6244 S.o2    1  ZINC001143596311    2.7000
     18 N18        -6.4317    1.4409   52.8307 N.am    1  ZINC001143596311   -1.2500
     19 O19        -6.5398    3.6419   51.7197 O.2     1  ZINC001143596311   -0.9400
     20 O20        -5.8208    1.6151   50.4460 O.2     1  ZINC001143596311   -0.9500
     21 C21        -3.1507    2.3025   51.1926 C.ar    1  ZINC001143596311    0.0500
     22 H22         2.5460   -1.2572   47.1387 H       1  ZINC001143596311    0.0400
     23 H23         2.3183    0.5065   47.2146 H       1  ZINC001143596311    0.0500
     24 H24         3.3823   -0.2010   45.9753 H       1  ZINC001143596311    0.0900
     25 H25         5.6387   -1.0684   49.9094 H       1  ZINC001143596311    0.0400
     26 H26         4.2929   -1.3842   51.0308 H       1  ZINC001143596311    0.0900
     27 H27         4.4084   -2.2887   49.5022 H       1  ZINC001143596311    0.0800
     28 H28         4.7979    0.9870   50.6290 H       1  ZINC001143596311    0.0500
     29 H29         4.0215    1.7927   49.2448 H       1  ZINC001143596311    0.0900
     30 H30         2.2720    0.3187   51.2006 H       1  ZINC001143596311    0.0800
     31 H31         2.9394    1.8949   51.6887 H       1  ZINC001143596311    0.0800
     32 H32         2.0720    2.8181   49.4713 H       1  ZINC001143596311    0.0800
     33 H33         1.2051    1.2777   49.2622 H       1  ZINC001143596311    0.0800
     34 H34         0.7443    3.0598   51.5965 H       1  ZINC001143596311    0.4000
     35 H35        -0.4861    3.5420   52.8925 H       1  ZINC001143596311    0.1500
     36 H36        -2.2981    4.3585   54.3407 H       1  ZINC001143596311    0.1600
     37 H37        -7.3518    1.1351   52.7999 H       1  ZINC001143596311    0.4200
     38 H38        -5.8582    1.1794   53.5681 H       1  ZINC001143596311    0.4200
     39 H39        -3.3913    1.7254   50.3120 H       1  ZINC001143596311    0.1700
@<TRIPOS>BOND
     1     1     2    1
     2     1    22    1
     3     1    23    1
     4     1    24    1
     5     2     3    1
     6     3     4    1
     7     3     5    1
     8     4    25    1
     9     4    26    1
    10     4    27    1
    11     5     6    1
    12     5    28    1
    13     5    29    1
    14     6     7    1
    15     6    30    1
    16     6    31    1
    17     7     8    1
    18     7    32    1
    19     7    33    1
    20     8     9   am
    21     8    34    1
    22     9    10    2
    23     9    11    1
    24    11    21   ar
    25    11    12   ar
    26    12    13   ar
    27    12    35    1
    28    13    14   ar
    29    13    36    1
    30    14    15    1
    31    14    16   ar
    32    16    17    1
    33    16    21   ar
    34    17    18   am
    35    17    19    2
    36    17    20    2
    37    18    37    1
    38    18    38    1
    39    21    39    1
@<TRIPOS>SUBSTRUCTURE
     1 ZINC001143596311        1 TEMP              0 ****  ****    0 ROOT


##########                                Name:    ZINC001041713551
##########                DOCK_Rotatable_Bonds:                  10
##########                         Heavy_Atoms:                  22
##########                    Molecular_Weight:             330.448
##########                DOCK_Rotatable_Bonds:                  10
##########                       Formal_Charge:          -0.0100006
##########                     HBond_Acceptors:                   7
##########                        HBond_Donors:                   2
##########                         Heavy_Atoms:                  22
##########                          Grid_Score:          -31.256153
##########                     Grid_vdw_energy:          -31.031586
##########                      Grid_es_energy:           -0.224567
##########           Internal_energy_repulsive:            3.289875

@<TRIPOS>MOLECULE
ZINC001041713551
 48 49 1 0 0
SMALL
USER_CHARGES


@<TRIPOS>ATOM
      1 C1         -2.7448    3.8644   53.2900 C.3     1  ZINC001041713551   -0.1500
      2 C2         -4.1110    3.4624   52.7304 C.3     1  ZINC001041713551   -0.1100
      3 C3         -3.9468    2.2595   51.7993 C.3     1  ZINC001041713551   -0.1000
      4 S4         -5.5593    1.8126   51.0988 S.3     1  ZINC001041713551   -0.1800
      5 C5         -6.1199    0.4737   52.1867 C.3     1  ZINC001041713551   -0.1300
      6 C6         -7.3923    0.8887   52.8795 C.2     1  ZINC001041713551    0.5300
      7 O7         -7.6248    2.0641   53.0673 O.2     1  ZINC001041713551   -0.5100
      8 N8         -8.2716   -0.0463   53.2906 N.am    1  ZINC001041713551   -0.7300
      9 C9         -9.5093    0.3573   53.9626 C.3     1  ZINC001041713551    0.1000
     10 C10       -10.1287   -0.8546   54.6615 C.3     1  ZINC001041713551    0.0900
     11 O11        -9.9130   -2.0767   53.9529 O.3     1  ZINC001041713551   -0.5200
     12 C12        -9.7995   -0.9395   56.1629 C.3     1  ZINC001041713551    0.0900
     13 N13       -11.2124   -1.3231   56.3485 N.am    1  ZINC001041713551   -0.6400
     14 C14       -11.8873   -2.0182   57.2855 C.2     1  ZINC001041713551    0.5500
     15 O15       -11.2980   -2.4792   58.2400 O.2     1  ZINC001041713551   -0.5100
     16 C16       -13.3739   -2.2227   57.1471 C.3     1  ZINC001041713551    0.0800
     17 H17       -13.6500   -2.1812   56.0935 H       1  ZINC001041713551    0.0800
     18 C18       -14.1139   -1.1224   57.9123 C.3     1  ZINC001041713551   -0.1500
     19 C19       -15.6224   -1.3712   57.8172 C.3     1  ZINC001041713551   -0.1200
     20 C20       -15.9336   -2.7685   58.3621 C.3     1  ZINC001041713551   -0.1600
     21 C21       -15.1233   -3.8051   57.5796 C.3     1  ZINC001041713551    0.0600
     22 O22       -13.7317   -3.4978   57.6837 O.3     1  ZINC001041713551   -0.3600
     23 C23       -11.5898   -0.6397   55.0961 C.3     1  ZINC001041713551    0.1200
     24 H24        -2.0793    4.1290   52.4684 H       1  ZINC001041713551    0.0600
     25 H25        -2.8618    4.7213   53.9533 H       1  ZINC001041713551    0.0600
     26 H26        -2.3203    3.0291   53.8469 H       1  ZINC001041713551    0.0600
     27 H27        -4.7766    3.1977   53.5520 H       1  ZINC001041713551    0.0700
     28 H28        -4.5356    4.2977   52.1735 H       1  ZINC001041713551    0.0700
     29 H29        -3.2588    2.5150   50.9934 H       1  ZINC001041713551    0.0800
     30 H30        -3.5490    1.4155   52.3628 H       1  ZINC001041713551    0.0800
     31 H31        -6.3046   -0.4225   51.5942 H       1  ZINC001041713551    0.1100
     32 H32        -5.3520    0.2650   52.9315 H       1  ZINC001041713551    0.1100
     33 H33        -8.0850   -0.9864   53.1416 H       1  ZINC001041713551    0.4000
     34 H34        -9.2872    1.1281   54.7006 H       1  ZINC001041713551    0.0900
     35 H35       -10.2108    0.7502   53.2268 H       1  ZINC001041713551    0.0900
     36 H36        -9.0689   -2.5038   54.1534 H       1  ZINC001041713551    0.3800
     37 H37        -9.0929   -1.7307   56.4138 H       1  ZINC001041713551    0.0900
     38 H38        -9.5423    0.0201   56.6113 H       1  ZINC001041713551    0.1000
     39 H39       -13.8076   -1.1370   58.9584 H       1  ZINC001041713551    0.0800
     40 H40       -13.8765   -0.1522   57.4758 H       1  ZINC001041713551    0.0800
     41 H41       -16.1531   -0.6234   58.4065 H       1  ZINC001041713551    0.0700
     42 H42       -15.9375   -1.3075   56.7757 H       1  ZINC001041713551    0.0700
     43 H43       -15.6641   -2.8164   59.4172 H       1  ZINC001041713551    0.0700
     44 H44       -16.9977   -2.9756   58.2473 H       1  ZINC001041713551    0.0800
     45 H45       -15.3083   -4.7974   57.9911 H       1  ZINC001041713551    0.1000
     46 H46       -15.4224   -3.7846   56.5316 H       1  ZINC001041713551    0.0500
     47 H47       -11.8584    0.4080   55.2310 H       1  ZINC001041713551    0.1100
     48 H48       -12.3126   -1.1915   54.4950 H       1  ZINC001041713551    0.1000
@<TRIPOS>BOND
     1     1     2    1
     2     1    24    1
     3     1    25    1
     4     1    26    1
     5     2     3    1
     6     2    27    1
     7     2    28    1
     8     3     4    1
     9     3    29    1
    10     3    30    1
    11     4     5    1
    12     5     6    1
    13     5    31    1
    14     5    32    1
    15     6     7    2
    16     6     8   am
    17     8     9    1
    18     8    33    1
    19     9    10    1
    20     9    34    1
    21     9    35    1
    22    10    23    1
    23    10    11    1
    24    10    12    1
    25    11    36    1
    26    12    13    1
    27    12    37    1
    28    12    38    1
    29    13    14   am
    30    13    23    1
    31    14    15    2
    32    14    16    1
    33    16    17    1
    34    16    22    1
    35    16    18    1
    36    18    19    1
    37    18    39    1
    38    18    40    1
    39    19    20    1
    40    19    41    1
    41    19    42    1
    42    20    21    1
    43    20    43    1
    44    20    44    1
    45    21    22    1
    46    21    45    1
    47    21    46    1
    48    23    47    1
    49    23    48    1
@<TRIPOS>SUBSTRUCTURE
     1 ZINC001041713551        1 TEMP              0 ****  ****    0 ROOT


##########                                Name:    ZINC000624498741
##########                DOCK_Rotatable_Bonds:                   7
##########                         Heavy_Atoms:                  27
##########                    Molecular_Weight:             379.339
##########                DOCK_Rotatable_Bonds:                   7
##########                       Formal_Charge:           0.0300003
##########                     HBond_Acceptors:                   9
##########                        HBond_Donors:                   0
##########                         Heavy_Atoms:                  27
##########                          Grid_Score:          -31.223364
##########                     Grid_vdw_energy:          -31.237574
##########                      Grid_es_energy:            0.014210
##########           Internal_energy_repulsive:           16.997347

@<TRIPOS>MOLECULE
ZINC000624498741
 43 45 1 0 0
SMALL
USER_CHARGES


@<TRIPOS>ATOM
      1 C1         -6.0952    1.9672   51.3253 C.3     1  ZINC000624498741   -0.1100
      2 C2         -4.8429    2.5564   51.9216 C.ar    1  ZINC000624498741   -0.0900
      3 C3         -3.6166    2.2779   51.3596 C.ar    1  ZINC000624498741   -0.0400
      4 C4         -2.4563    2.8250   51.9129 C.ar    1  ZINC000624498741   -0.0500
      5 C5         -1.1397    2.5294   51.3132 C.2     1  ZINC000624498741    0.2300
      6 N6          0.0443    2.8122   51.8288 N.2     1  ZINC000624498741   -0.4700
      7 C7          0.9413    2.3596   50.9390 C.2     1  ZINC000624498741    0.1800
      8 C8          2.4405    2.4431   51.0660 C.3     1  ZINC000624498741   -0.0300
      9 C9          3.0488    1.0563   50.8480 C.3     1  ZINC000624498741   -0.1300
     10 C10         3.2684    0.8252   49.3515 C.3     1  ZINC000624498741    0.0900
     11 N11         3.6024   -0.5821   49.1185 N.am    1  ZINC000624498741   -0.5000
     12 C12         4.1846   -1.3064   50.1082 C.2     1  ZINC000624498741    0.1300
     13 C13         4.5026   -2.6080   49.9164 C.2     1  ZINC000624498741   -0.2300
     14 C14         4.2304   -3.2209   48.6853 C.2     1  ZINC000624498741   -0.0200
     15 C15         3.6450   -2.4917   47.6923 C.2     1  ZINC000624498741   -0.2400
     16 C16         3.3233   -1.1439   47.9270 C.2     1  ZINC000624498741    0.5100
     17 O17         2.7992   -0.4798   47.0472 O.2     1  ZINC000624498741   -0.5500
     18 N18         0.2827    1.8353   49.9477 N.2     1  ZINC000624498741   -0.3700
     19 O19        -0.9118    1.9159   50.1413 O.3     1  ZINC000624498741    0.0900
     20 C20        -2.5450    3.6526   53.0345 C.ar    1  ZINC000624498741   -0.0200
     21 C21        -3.7754    3.9262   53.5907 C.ar    1  ZINC000624498741   -0.1900
     22 C22        -4.9274    3.3845   53.0342 C.ar    1  ZINC000624498741    0.1300
     23 O23        -6.1380    3.6566   53.5855 O.3     1  ZINC000624498741   -0.3000
     24 C24        -6.4324    5.0277   53.8602 C.3     1  ZINC000624498741    0.6000
     25 F25        -7.8191    5.2079   53.9001 F       1  ZINC000624498741   -0.1600
     26 F26        -5.8800    5.3849   55.0949 F       1  ZINC000624498741   -0.1300
     27 F27        -5.8863    5.8325   52.8547 F       1  ZINC000624498741   -0.1600
     28 H28        -6.4888    2.6429   50.5659 H       1  ZINC000624498741    0.0800
     29 H29        -5.8627    1.0047   50.8696 H       1  ZINC000624498741    0.0800
     30 H30        -6.8400    1.8279   52.1088 H       1  ZINC000624498741    0.0800
     31 H31        -3.5521    1.6372   50.4925 H       1  ZINC000624498741    0.1500
     32 H32         2.8307    3.1327   50.3175 H       1  ZINC000624498741    0.1000
     33 H33         2.7014    2.8019   52.0617 H       1  ZINC000624498741    0.1000
     34 H34         4.0039    0.9924   51.3694 H       1  ZINC000624498741    0.0800
     35 H35         2.3708    0.2967   51.2372 H       1  ZINC000624498741    0.0800
     36 H36         2.3582    1.0775   48.8075 H       1  ZINC000624498741    0.1100
     37 H37         4.0866    1.4553   49.0028 H       1  ZINC000624498741    0.1000
     38 H38         4.3964   -0.8391   51.0585 H       1  ZINC000624498741    0.1600
     39 H39         4.9663   -3.1738   50.7110 H       1  ZINC000624498741    0.1500
     40 H40         4.4817   -4.2590   48.5248 H       1  ZINC000624498741    0.1400
     41 H41         3.4275   -2.9463   46.7371 H       1  ZINC000624498741    0.1500
     42 H42        -1.6502    4.0770   53.4654 H       1  ZINC000624498741    0.1500
     43 H43        -3.8448    4.5658   54.4582 H       1  ZINC000624498741    0.1500
@<TRIPOS>BOND
     1     1     2    1
     2     1    28    1
     3     1    29    1
     4     1    30    1
     5     2    22   ar
     6     2     3   ar
     7     3     4   ar
     8     3    31    1
     9     4     5    1
    10     4    20   ar
    11     5    19    1
    12     5     6    2
    13     6     7    1
    14     7     8    1
    15     7    18    2
    16     8     9    1
    17     8    32    1
    18     8    33    1
    19     9    10    1
    20     9    34    1
    21     9    35    1
    22    10    11    1
    23    10    36    1
    24    10    37    1
    25    11    16   am
    26    11    12    1
    27    12    13    2
    28    12    38    1
    29    13    14    1
    30    13    39    1
    31    14    15    2
    32    14    40    1
    33    15    16    1
    34    15    41    1
    35    16    17    2
    36    18    19    1
    37    20    21   ar
    38    20    42    1
    39    21    22   ar
    40    21    43    1
    41    22    23    1
    42    23    24    1
    43    24    25    1
    44    24    26    1
    45    24    27    1
@<TRIPOS>SUBSTRUCTURE
     1 ZINC000624498741        1 TEMP              0 ****  ****    0 ROOT


##########                                Name:    ZINC001362587626
##########                DOCK_Rotatable_Bonds:                   9
##########                         Heavy_Atoms:                  25
##########                    Molecular_Weight:             346.346
##########                DOCK_Rotatable_Bonds:                   9
##########                       Formal_Charge:        -4.02331e-07
##########                     HBond_Acceptors:                  10
##########                        HBond_Donors:                   2
##########                         Heavy_Atoms:                  25
##########                          Grid_Score:          -31.203245
##########                     Grid_vdw_energy:          -27.176186
##########                      Grid_es_energy:           -4.027060
##########           Internal_energy_repulsive:            5.909187

@<TRIPOS>MOLECULE
ZINC001362587626
 43 45 1 0 0
SMALL
USER_CHARGES


@<TRIPOS>ATOM
      1 C1         -8.9126    0.3292   61.6175 C.3     1  ZINC001362587626   -0.1600
      2 C2         -7.4118    0.5811   61.4593 C.3     1  ZINC001362587626    0.1300
      3 H3         -6.8631   -0.3291   61.7014 H       1  ZINC001362587626    0.1200
      4 N4         -6.9988    1.6558   62.3653 N.am    1  ZINC001362587626   -0.7100
      5 C5         -6.7304    1.3819   63.6574 C.2     1  ZINC001362587626    0.5100
      6 O6         -6.8291    0.2457   64.0697 O.2     1  ZINC001362587626   -0.5000
      7 C7         -6.3073    2.4878   64.5898 C.3     1  ZINC001362587626    0.1000
      8 N8         -5.4812    1.9313   65.6641 N.pl3   1  ZINC001362587626   -0.3100
      9 C9         -4.1609    1.6761   65.6068 C.2     1  ZINC001362587626    0.1600
     10 N10        -3.8210    1.1878   66.7747 N.2     1  ZINC001362587626   -0.3000
     11 N11        -4.8775    1.1453   67.5109 N.2     1  ZINC001362587626   -0.0700
     12 N12        -5.8814    1.5990   66.8447 N.2     1  ZINC001362587626   -0.0700
     13 C13        -7.1170    0.9821   60.0370 C.2     1  ZINC001362587626    0.5100
     14 O14        -6.1453    0.5303   59.4685 O.2     1  ZINC001362587626   -0.5200
     15 N15        -7.9330    1.8425   59.3964 N.am    1  ZINC001362587626   -0.6600
     16 C16        -7.6588    2.2153   58.0740 C.ar    1  ZINC001362587626    0.1000
     17 C17        -8.1842    1.4778   57.0214 C.ar    1  ZINC001362587626   -0.1000
     18 C18        -7.9140    1.8460   55.7182 C.ar    1  ZINC001362587626   -0.1900
     19 C19        -7.1175    2.9521   55.4606 C.ar    1  ZINC001362587626    0.1200
     20 O20        -6.8515    3.3139   54.1772 O.3     1  ZINC001362587626   -0.2800
     21 C21        -5.7321    2.6891   53.5458 C.3     1  ZINC001362587626    0.0100
     22 C22        -6.1086    1.4844   52.6628 C.3     1  ZINC001362587626    0.0200
     23 O23        -6.1903    2.4418   51.5879 O.3     1  ZINC001362587626   -0.3700
     24 C24        -5.2972    3.3706   52.2346 C.3     1  ZINC001362587626    0.0400
     25 C25        -6.5926    3.6897   56.5117 C.ar    1  ZINC001362587626   -0.1300
     26 C26        -6.8664    3.3257   57.8154 C.ar    1  ZINC001362587626   -0.0800
     27 H27        -9.4613    1.2394   61.3755 H       1  ZINC001362587626    0.0700
     28 H28        -9.2198   -0.4704   60.9435 H       1  ZINC001362587626    0.0800
     29 H29        -9.1259    0.0391   62.6464 H       1  ZINC001362587626    0.0800
     30 H30        -6.9187    2.5643   62.0353 H       1  ZINC001362587626    0.4100
     31 H31        -5.7318    3.2296   64.0361 H       1  ZINC001362587626    0.1500
     32 H32        -7.1913    2.9597   65.0185 H       1  ZINC001362587626    0.1400
     33 H33        -3.5082    1.8411   64.7622 H       1  ZINC001362587626    0.2400
     34 H34        -8.7100    2.2036   59.8509 H       1  ZINC001362587626    0.4100
     35 H35        -8.8037    0.6162   57.2218 H       1  ZINC001362587626    0.1300
     36 H36        -8.3225    1.2724   54.8993 H       1  ZINC001362587626    0.1400
     37 H37        -4.9098    2.4929   54.2338 H       1  ZINC001362587626    0.0900
     38 H38        -5.3061    0.7562   52.5447 H       1  ZINC001362587626    0.1000
     39 H39        -7.0647    1.0295   52.9218 H       1  ZINC001362587626    0.1000
     40 H40        -5.6096    4.4117   52.1540 H       1  ZINC001362587626    0.1000
     41 H41        -4.2469    3.2185   51.9858 H       1  ZINC001362587626    0.1000
     42 H42        -5.9726    4.5508   56.3105 H       1  ZINC001362587626    0.1400
     43 H43        -6.4581    3.9003   58.6337 H       1  ZINC001362587626    0.1500
@<TRIPOS>BOND
     1     1     2    1
     2     1    27    1
     3     1    28    1
     4     1    29    1
     5     2     3    1
     6     2     4    1
     7     2    13    1
     8     4     5   am
     9     4    30    1
    10     5     6    2
    11     5     7    1
    12     7     8    1
    13     7    31    1
    14     7    32    1
    15     8    12    1
    16     8     9    1
    17     9    10    2
    18     9    33    1
    19    10    11    1
    20    11    12    2
    21    13    14    2
    22    13    15   am
    23    15    16    1
    24    15    34    1
    25    16    26   ar
    26    16    17   ar
    27    17    18   ar
    28    17    35    1
    29    18    19   ar
    30    18    36    1
    31    19    20    1
    32    19    25   ar
    33    20    21    1
    34    21    24    1
    35    21    22    1
    36    21    37    1
    37    22    23    1
    38    22    38    1
    39    22    39    1
    40    23    24    1
    41    24    40    1
    42    24    41    1
    43    25    26   ar
    44    25    42    1
    45    26    43    1
@<TRIPOS>SUBSTRUCTURE
     1 ZINC001362587626        1 TEMP              0 ****  ****    0 ROOT


##########                                Name:    ZINC000504243286
##########                DOCK_Rotatable_Bonds:                   7
##########                         Heavy_Atoms:                  29
##########                    Molecular_Weight:             408.337
##########                DOCK_Rotatable_Bonds:                   7
##########                       Formal_Charge:           0.0299994
##########                     HBond_Acceptors:                  11
##########                        HBond_Donors:                   3
##########                         Heavy_Atoms:                  29
##########                          Grid_Score:          -31.191362
##########                     Grid_vdw_energy:          -31.164682
##########                      Grid_es_energy:           -0.026680
##########           Internal_energy_repulsive:           11.736538

@<TRIPOS>MOLECULE
ZINC000504243286
 44 46 1 0 0
SMALL
USER_CHARGES


@<TRIPOS>ATOM
      1 O1         -6.0720    0.7021   52.9737 O.2     1  ZINC000504243286   -0.5200
      2 C2         -6.6856    1.6580   52.5481 C.2     1  ZINC000504243286    0.5200
      3 C3         -6.1303    2.4587   51.3985 C.3     1  ZINC000504243286   -0.1600
      4 C4         -4.7549    1.9107   51.0126 C.3     1  ZINC000504243286    0.1300
      5 N5         -3.7562    2.3729   51.9798 N.pl3   1  ZINC000504243286   -0.7200
      6 C6         -2.4070    2.4204   51.6217 C.ar    1  ZINC000504243286    0.3100
      7 C7         -1.9511    1.6951   50.5285 C.ar    1  ZINC000504243286   -0.1900
      8 C8         -0.6163    1.7446   50.1768 C.ar    1  ZINC000504243286    0.0200
      9 C9          0.2658    2.5151   50.9118 C.ar    1  ZINC000504243286   -0.2400
     10 C10         1.7213    2.5671   50.5249 C.3     1  ZINC000504243286    0.5200
     11 F11         2.5116    2.5523   51.6791 F       1  ZINC000504243286   -0.1700
     12 F12         2.0330    1.4574   49.7320 F       1  ZINC000504243286   -0.1700
     13 F13         1.9705    3.7400   49.8041 F       1  ZINC000504243286   -0.1700
     14 C14        -0.1849    3.2386   52.0010 C.ar    1  ZINC000504243286    0.0400
     15 C15        -1.5190    3.1977   52.3548 C.ar    1  ZINC000504243286   -0.1200
     16 N16        -2.0004    3.9722   53.5206 N.pl3   1  ZINC000504243286    0.0400
     17 O17        -3.0925    4.5104   53.4853 O.2     1  ZINC000504243286   -0.1700
     18 O18        -1.3045    4.0715   54.5153 O.2     1  ZINC000504243286   -0.1400
     19 N19        -7.8667    2.0005   53.0996 N.am    1  ZINC000504243286   -0.6700
     20 C20        -8.3828    1.2562   54.1682 C.ar    1  ZINC000504243286    0.1200
     21 C21        -7.9964    1.5447   55.4702 C.ar    1  ZINC000504243286   -0.1000
     22 C22        -8.5031    0.8141   56.5243 C.ar    1  ZINC000504243286   -0.1200
     23 C23        -9.4069   -0.2203   56.2905 C.ar    1  ZINC000504243286    0.1300
     24 N24       -10.0476   -1.0893   57.1772 N.am    1  ZINC000504243286   -0.6600
     25 C25       -10.8535   -1.9582   56.5441 C.2     1  ZINC000504243286    0.5300
     26 O26       -11.5300   -2.8217   57.0617 O.2     1  ZINC000504243286   -0.5000
     27 C27       -10.7589   -1.6570   55.0635 C.3     1  ZINC000504243286   -0.1200
     28 C28        -9.7877   -0.5018   54.9841 C.ar    1  ZINC000504243286   -0.1200
     29 C29        -9.2886    0.2288   53.9305 C.ar    1  ZINC000504243286   -0.0600
     30 H30        -6.8038    2.3839   50.5448 H       1  ZINC000504243286    0.1100
     31 H31        -6.0349    3.5030   51.6958 H       1  ZINC000504243286    0.1100
     32 H32        -4.7845    0.8211   51.0137 H       1  ZINC000504243286    0.0800
     33 H33        -4.4884    2.2661   50.0173 H       1  ZINC000504243286    0.0900
     34 H34        -4.0320    2.6460   52.8687 H       1  ZINC000504243286    0.4100
     35 H35        -2.6395    1.0929   49.9542 H       1  ZINC000504243286    0.1600
     36 H36        -0.2610    1.1806   49.3271 H       1  ZINC000504243286    0.1600
     37 H37         0.5067    3.8394   52.5731 H       1  ZINC000504243286    0.1600
     38 H38        -8.3593    2.7624   52.7566 H       1  ZINC000504243286    0.4200
     39 H39        -7.2957    2.3447   55.6582 H       1  ZINC000504243286    0.1400
     40 H40        -8.1981    1.0442   57.5345 H       1  ZINC000504243286    0.1300
     41 H41        -9.9248   -1.0679   58.1391 H       1  ZINC000504243286    0.4100
     42 H42       -10.3710   -2.5200   54.5224 H       1  ZINC000504243286    0.1300
     43 H43       -11.7327   -1.3649   54.6705 H       1  ZINC000504243286    0.1300
     44 H44        -9.5973    0.0022   52.9206 H       1  ZINC000504243286    0.1500
@<TRIPOS>BOND
     1     1     2    2
     2     2     3    1
     3     2    19   am
     4     3     4    1
     5     3    30    1
     6     3    31    1
     7     4     5    1
     8     4    32    1
     9     4    33    1
    10     5     6    1
    11     5    34    1
    12     6    15   ar
    13     6     7   ar
    14     7     8   ar
    15     7    35    1
    16     8     9   ar
    17     8    36    1
    18     9    10    1
    19     9    14   ar
    20    10    11    1
    21    10    12    1
    22    10    13    1
    23    14    15   ar
    24    14    37    1
    25    15    16    1
    26    16    17    2
    27    16    18    2
    28    19    20    1
    29    19    38    1
    30    20    29   ar
    31    20    21   ar
    32    21    22   ar
    33    21    39    1
    34    22    23   ar
    35    22    40    1
    36    23    28   ar
    37    23    24    1
    38    24    25   am
    39    24    41    1
    40    25    26    2
    41    25    27    1
    42    27    28    1
    43    27    42    1
    44    27    43    1
    45    28    29   ar
    46    29    44    1
@<TRIPOS>SUBSTRUCTURE
     1 ZINC000504243286        1 TEMP              0 ****  ****    0 ROOT


##########                                Name:    ZINC000919225759
##########                DOCK_Rotatable_Bonds:                   4
##########                         Heavy_Atoms:                  27
##########                    Molecular_Weight:             375.295
##########                DOCK_Rotatable_Bonds:                   4
##########                       Formal_Charge:                0.04
##########                     HBond_Acceptors:                  11
##########                        HBond_Donors:                   0
##########                         Heavy_Atoms:                  27
##########                          Grid_Score:          -31.172226
##########                     Grid_vdw_energy:          -28.141500
##########                      Grid_es_energy:           -3.030725
##########           Internal_energy_repulsive:           13.044743

@<TRIPOS>MOLECULE
ZINC000919225759
 40 41 1 0 0
SMALL
USER_CHARGES


@<TRIPOS>ATOM
      1 C1        -11.7085    0.7617   61.2039 C.3     1  ZINC000919225759   -0.1500
      2 C2        -11.4324   -0.3177   60.1890 C.ar    1  ZINC000919225759    0.0900
      3 C3        -10.1354   -0.5130   59.7106 C.ar    1  ZINC000919225759   -0.1200
      4 C4         -9.0294    0.3370   60.1970 C.2     1  ZINC000919225759    0.5200
      5 O5         -8.2314    0.8047   59.4098 O.2     1  ZINC000919225759   -0.4700
      6 O6         -8.9060    0.5935   61.5138 O.3     1  ZINC000919225759   -0.3400
      7 C7         -8.1540    1.7782   61.8870 C.3     1  ZINC000919225759    0.1400
      8 H8         -7.3205    1.9118   61.1972 H       1  ZINC000919225759    0.1100
      9 C9         -9.0685    3.0032   61.8250 C.3     1  ZINC000919225759   -0.1700
     10 C10        -7.6250    1.6165   63.2888 C.ar    1  ZINC000919225759   -0.1000
     11 C11        -6.6011    2.4286   63.7388 C.ar    1  ZINC000919225759   -0.0400
     12 C12        -6.1157    2.2803   65.0248 C.ar    1  ZINC000919225759   -0.1100
     13 C13        -6.6546    1.3205   65.8605 C.ar    1  ZINC000919225759   -0.0500
     14 C14        -7.6795    0.5088   65.4106 C.ar    1  ZINC000919225759   -0.0400
     15 N15        -8.2562   -0.5196   66.3054 N.pl3   1  ZINC000919225759    0.0300
     16 O16        -7.8281   -0.6507   67.4381 O.2     1  ZINC000919225759   -0.1500
     17 O17        -9.1590   -1.2346   65.9091 O.2     1  ZINC000919225759   -0.1500
     18 C18        -8.1676    0.6599   64.1264 C.ar    1  ZINC000919225759   -0.0400
     19 C19        -9.8883   -1.5157   58.7707 C.ar    1  ZINC000919225759    0.0500
     20 C20       -10.9256   -2.3059   58.3213 C.ar    1  ZINC000919225759   -0.0600
     21 N21       -10.6655   -3.3696   57.3253 N.pl3   1  ZINC000919225759    0.0300
     22 O22        -9.5366   -3.5462   56.9035 O.2     1  ZINC000919225759   -0.1300
     23 O23       -11.5805   -4.0682   56.9274 O.2     1  ZINC000919225759   -0.1300
     24 C24       -12.2088   -2.1069   58.7996 C.ar    1  ZINC000919225759    0.0400
     25 C25       -12.4596   -1.1188   59.7349 C.ar    1  ZINC000919225759   -0.0500
     26 N26       -13.8353   -0.9135   60.2413 N.pl3   1  ZINC000919225759    0.0200
     27 O27       -14.7854   -1.0308   59.4882 O.2     1  ZINC000919225759   -0.1300
     28 O28       -14.0172   -0.6273   61.4111 O.2     1  ZINC000919225759   -0.1200
     29 H29       -11.4804    0.3885   62.2023 H       1  ZINC000919225759    0.1200
     30 H30       -11.0855    1.6300   60.9895 H       1  ZINC000919225759    0.1200
     31 H31       -12.7592    1.0471   61.1539 H       1  ZINC000919225759    0.0900
     32 H32        -9.9019    2.8697   62.5147 H       1  ZINC000919225759    0.0700
     33 H33        -8.5040    3.8926   62.1052 H       1  ZINC000919225759    0.0900
     34 H34        -9.4511    3.1202   60.8111 H       1  ZINC000919225759    0.0700
     35 H35        -6.1800    3.1787   63.0858 H       1  ZINC000919225759    0.1500
     36 H36        -5.3152    2.9145   65.3763 H       1  ZINC000919225759    0.1500
     37 H37        -6.2749    1.2042   66.8649 H       1  ZINC000919225759    0.1600
     38 H38        -8.9682    0.0258   63.7749 H       1  ZINC000919225759    0.1600
     39 H39        -8.8875   -1.6719   58.3962 H       1  ZINC000919225759    0.1900
     40 H40       -13.0174   -2.7283   58.4441 H       1  ZINC000919225759    0.1900
@<TRIPOS>BOND
     1     1     2    1
     2     1    29    1
     3     1    30    1
     4     1    31    1
     5     2    25   ar
     6     2     3   ar
     7     3     4    1
     8     3    19   ar
     9     4     5    2
    10     4     6    1
    11     6     7    1
    12     7     8    1
    13     7     9    1
    14     7    10    1
    15     9    32    1
    16     9    33    1
    17     9    34    1
    18    10    18   ar
    19    10    11   ar
    20    11    12   ar
    21    11    35    1
    22    12    13   ar
    23    12    36    1
    24    13    14   ar
    25    13    37    1
    26    14    15    1
    27    14    18   ar
    28    15    16    2
    29    15    17    2
    30    18    38    1
    31    19    20   ar
    32    19    39    1
    33    20    21    1
    34    20    24   ar
    35    21    22    2
    36    21    23    2
    37    24    25   ar
    38    24    40    1
    39    25    26    1
    40    26    27    2
    41    26    28    2
@<TRIPOS>SUBSTRUCTURE
     1 ZINC000919225759        1 TEMP              0 ****  ****    0 ROOT


##########                                Name:    ZINC000467185792
##########                DOCK_Rotatable_Bonds:                   9
##########                         Heavy_Atoms:                  29
##########                    Molecular_Weight:             412.513
##########                DOCK_Rotatable_Bonds:                   9
##########                       Formal_Charge:                0.04
##########                     HBond_Acceptors:                   8
##########                        HBond_Donors:                   2
##########                         Heavy_Atoms:                  29
##########                          Grid_Score:          -31.112255
##########                     Grid_vdw_energy:          -29.248129
##########                      Grid_es_energy:           -1.864126
##########           Internal_energy_repulsive:           24.550167

@<TRIPOS>MOLECULE
ZINC000467185792
 53 55 1 0 0
SMALL
USER_CHARGES


@<TRIPOS>ATOM
      1 C1        -15.0178    2.6592   47.8176 C.3     1  ZINC000467185792   -0.1500
      2 C2        -15.4349    1.2198   48.1260 C.3     1  ZINC000467185792   -0.1200
      3 C3        -14.4299    0.5943   49.0955 C.3     1  ZINC000467185792    0.0600
      4 O4        -14.4017    1.3521   50.3067 O.3     1  ZINC000467185792   -0.3100
      5 C5        -13.6200    0.8787   51.3127 C.ar    1  ZINC000467185792    0.1400
      6 C6        -12.8810   -0.2818   51.1279 C.ar    1  ZINC000467185792   -0.2100
      7 C7        -12.0864   -0.7646   52.1467 C.ar    1  ZINC000467185792   -0.0400
      8 C8        -12.0259   -0.0860   53.3628 C.ar    1  ZINC000467185792   -0.0600
      9 C9        -11.1719   -0.6022   54.4604 C.2     1  ZINC000467185792    0.1400
     10 C10       -10.4769   -1.7485   54.3518 C.2     1  ZINC000467185792   -0.3000
     11 S11        -9.5985   -2.0050   55.8578 S.3     1  ZINC000467185792    0.2000
     12 C12       -10.2674   -0.5092   56.5033 C.2     1  ZINC000467185792    0.2800
     13 N13       -10.0074    0.0073   57.7653 N.am    1  ZINC000467185792   -0.6100
     14 C14       -10.1763   -0.7647   58.8572 C.2     1  ZINC000467185792    0.5900
     15 O15       -10.5564   -1.9136   58.7367 O.2     1  ZINC000467185792   -0.4900
     16 C16        -9.9003   -0.2165   60.1969 C.2     1  ZINC000467185792   -0.2400
     17 C17        -8.5952   -0.0346   60.6499 C.2     1  ZINC000467185792    0.0800
     18 C18        -7.4159   -0.3927   59.7827 C.3     1  ZINC000467185792   -0.1200
     19 C19        -6.9108    0.8608   59.0654 C.3     1  ZINC000467185792   -0.1400
     20 C20        -8.4121    0.4913   61.9346 C.2     1  ZINC000467185792    0.0600
     21 C21        -7.0167    0.7042   62.4625 C.3     1  ZINC000467185792   -0.0600
     22 C22        -7.0858    1.1196   63.9334 C.3     1  ZINC000467185792   -0.1500
     23 N23        -9.4392    0.7993   62.6790 N.2     1  ZINC000467185792   -0.1800
     24 N24       -10.6526    0.6447   62.2933 N.am    1  ZINC000467185792   -0.4300
     25 C25       -10.9565    0.1535   61.0766 C.2     1  ZINC000467185792    0.5000
     26 O26       -12.1195    0.0176   60.7376 O.2     1  ZINC000467185792   -0.5300
     27 N27       -11.0368    0.0374   55.6135 N.2     1  ZINC000467185792   -0.5000
     28 C28       -12.7692    1.0791   53.5452 C.ar    1  ZINC000467185792   -0.0600
     29 C29       -13.5578    1.5596   52.5207 C.ar    1  ZINC000467185792   -0.1500
     30 H30       -14.0263    2.6610   47.3647 H       1  ZINC000467185792    0.0600
     31 H31       -15.7336    3.1048   47.1269 H       1  ZINC000467185792    0.0700
     32 H32       -14.9961    3.2371   48.7414 H       1  ZINC000467185792    0.0600
     33 H33       -16.4262    1.2180   48.5790 H       1  ZINC000467185792    0.0700
     34 H34       -15.4564    0.6419   47.2020 H       1  ZINC000467185792    0.0700
     35 H35       -14.7269   -0.4311   49.3153 H       1  ZINC000467185792    0.0600
     36 H36       -13.4385    0.5963   48.6426 H       1  ZINC000467185792    0.0600
     37 H37       -12.9286   -0.8073   50.1857 H       1  ZINC000467185792    0.1300
     38 H38       -11.5119   -1.6678   52.0025 H       1  ZINC000467185792    0.1300
     39 H39       -10.4602   -2.3998   53.4904 H       1  ZINC000467185792    0.1800
     40 H40        -9.7042    0.9236   57.8615 H       1  ZINC000467185792    0.4400
     41 H41        -6.6190   -0.8017   60.4040 H       1  ZINC000467185792    0.0900
     42 H42        -7.7194   -1.1358   59.0453 H       1  ZINC000467185792    0.1300
     43 H43        -7.7077    1.2698   58.4442 H       1  ZINC000467185792    0.0600
     44 H44        -6.6073    1.6040   59.8028 H       1  ZINC000467185792    0.0600
     45 H45        -6.0578    0.6017   58.4382 H       1  ZINC000467185792    0.0700
     46 H46        -6.4491   -0.2220   62.3727 H       1  ZINC000467185792    0.1000
     47 H47        -6.5260    1.4885   61.8862 H       1  ZINC000467185792    0.1000
     48 H48        -6.0765    1.2735   64.3152 H       1  ZINC000467185792    0.0600
     49 H49        -7.6534    2.0457   64.0232 H       1  ZINC000467185792    0.0600
     50 H50        -7.5765    0.3353   64.5097 H       1  ZINC000467185792    0.0600
     51 H51       -11.3727    0.8928   62.8940 H       1  ZINC000467185792    0.4500
     52 H52       -12.7247    1.6069   54.4863 H       1  ZINC000467185792    0.1300
     53 H53       -14.1337    2.4623   52.6612 H       1  ZINC000467185792    0.1400
@<TRIPOS>BOND
     1     1     2    1
     2     1    30    1
     3     1    31    1
     4     1    32    1
     5     2     3    1
     6     2    33    1
     7     2    34    1
     8     3     4    1
     9     3    35    1
    10     3    36    1
    11     4     5    1
    12     5    29   ar
    13     5     6   ar
    14     6     7   ar
    15     6    37    1
    16     7     8   ar
    17     7    38    1
    18     8     9    1
    19     8    28   ar
    20     9    27    1
    21     9    10    2
    22    10    11    1
    23    10    39    1
    24    11    12    1
    25    12    13    1
    26    12    27    2
    27    13    14   am
    28    13    40    1
    29    14    15    2
    30    14    16    1
    31    16    25    1
    32    16    17    2
    33    17    18    1
    34    17    20    1
    35    18    19    1
    36    18    41    1
    37    18    42    1
    38    19    43    1
    39    19    44    1
    40    19    45    1
    41    20    21    1
    42    20    23    2
    43    21    22    1
    44    21    46    1
    45    21    47    1
    46    22    48    1
    47    22    49    1
    48    22    50    1
    49    23    24    1
    50    24    25   am
    51    24    51    1
    52    25    26    2
    53    28    29   ar
    54    28    52    1
    55    29    53    1
@<TRIPOS>SUBSTRUCTURE
     1 ZINC000467185792        1 TEMP              0 ****  ****    0 ROOT


##########                                Name:    ZINC001411334959
##########                DOCK_Rotatable_Bonds:                   9
##########                         Heavy_Atoms:                  24
##########                    Molecular_Weight:              339.37
##########                DOCK_Rotatable_Bonds:                   9
##########                       Formal_Charge:           0.0199995
##########                     HBond_Acceptors:                   9
##########                        HBond_Donors:                   3
##########                         Heavy_Atoms:                  24
##########                          Grid_Score:          -31.110176
##########                     Grid_vdw_energy:          -31.502819
##########                      Grid_es_energy:            0.392642
##########           Internal_energy_repulsive:            7.341811

@<TRIPOS>MOLECULE
ZINC001411334959
 46 48 1 0 0
SMALL
USER_CHARGES


@<TRIPOS>ATOM
      1 O1         -7.5412   -0.4731   52.5113 O.2     1  ZINC001411334959   -0.5400
      2 C2         -7.5761    0.6293   53.0158 C.2     1  ZINC001411334959    0.5200
      3 C3         -6.3435    1.4964   53.0179 C.3     1  ZINC001411334959   -0.1400
      4 C4         -5.5133    1.2057   51.7660 C.3     1  ZINC001411334959   -0.0100
      5 C5         -4.2066    1.9522   51.8454 C.2     1  ZINC001411334959    0.0100
      6 N6         -3.9551    3.0356   52.5446 N.2     1  ZINC001411334959   -0.2800
      7 N7         -2.7287    3.3733   52.3556 N.pl3   1  ZINC001411334959   -0.2500
      8 N8         -2.1485    2.5531   51.5529 N.2     1  ZINC001411334959   -0.2800
      9 C9         -3.0129    1.6307   51.1953 C.2     1  ZINC001411334959   -0.0200
     10 N10        -8.7188    1.0812   53.5695 N.am    1  ZINC001411334959   -0.7200
     11 C11        -9.9170    0.2383   53.5674 C.3     1  ZINC001411334959    0.1200
     12 C12        -9.7483   -1.0743   54.3508 C.3     1  ZINC001411334959   -0.1400
     13 C13       -11.1804   -0.8582   54.8677 C.3     1  ZINC001411334959   -0.1200
     14 C14       -11.3606   -1.2203   56.3432 C.3     1  ZINC001411334959    0.1300
     15 N15       -12.7892   -1.2594   56.6654 N.am    1  ZINC001411334959   -0.7200
     16 C16       -13.2023   -1.7900   57.8335 C.2     1  ZINC001411334959    0.5100
     17 O17       -12.3912   -2.2338   58.6185 O.2     1  ZINC001411334959   -0.5100
     18 C18       -14.6719   -1.8318   58.1642 C.3     1  ZINC001411334959    0.0700
     19 F19       -15.0225   -0.7661   59.0001 F       1  ZINC001411334959   -0.1800
     20 C20       -15.5301   -1.8302   56.8698 C.3     1  ZINC001411334959   -0.1600
     21 C21       -16.7977   -2.5768   57.3563 C.3     1  ZINC001411334959    0.0500
     22 O22       -16.3165   -3.5801   58.2647 O.3     1  ZINC001411334959   -0.3700
     23 C23       -15.0521   -3.1827   58.8076 C.3     1  ZINC001411334959    0.0400
     24 C24       -10.9574    0.6438   54.6248 C.3     1  ZINC001411334959   -0.1400
     25 H25        -6.6376    2.5460   53.0232 H       1  ZINC001411334959    0.1000
     26 H26        -5.7493    1.2811   53.9060 H       1  ZINC001411334959    0.1000
     27 H27        -5.3171    0.1355   51.7006 H       1  ZINC001411334959    0.1000
     28 H28        -6.0634    1.5289   50.8822 H       1  ZINC001411334959    0.0900
     29 H29        -2.2998    4.1421   52.7629 H       1  ZINC001411334959    0.4700
     30 H30        -2.8382    0.7983   50.5296 H       1  ZINC001411334959    0.2000
     31 H31        -8.7478    1.9644   53.9695 H       1  ZINC001411334959    0.4000
     32 H32       -10.3374    0.1025   52.5709 H       1  ZINC001411334959    0.1200
     33 H33        -9.6418   -1.9523   53.7139 H       1  ZINC001411334959    0.0800
     34 H34        -8.9897   -1.0222   55.1318 H       1  ZINC001411334959    0.0900
     35 H35       -11.9463   -1.2963   54.2277 H       1  ZINC001411334959    0.1000
     36 H36       -10.9183   -2.1981   56.5340 H       1  ZINC001411334959    0.0800
     37 H37       -10.8685   -0.4716   56.9639 H       1  ZINC001411334959    0.0800
     38 H38       -13.4379   -0.9034   56.0382 H       1  ZINC001411334959    0.4100
     39 H39       -15.7685   -0.8134   56.5578 H       1  ZINC001411334959    0.1000
     40 H40       -15.0341   -2.3788   56.0690 H       1  ZINC001411334959    0.1100
     41 H41       -17.4672   -1.8888   57.8727 H       1  ZINC001411334959    0.0700
     42 H42       -17.3090   -3.0428   56.5140 H       1  ZINC001411334959    0.1000
     43 H43       -14.2960   -3.9311   58.5702 H       1  ZINC001411334959    0.0900
     44 H44       -15.1335   -3.0676   59.8885 H       1  ZINC001411334959    0.0900
     45 H45       -10.5293    1.1657   55.4807 H       1  ZINC001411334959    0.0900
     46 H46       -11.8269    1.1528   54.2091 H       1  ZINC001411334959    0.0800
@<TRIPOS>BOND
     1     1     2    2
     2     2     3    1
     3     2    10   am
     4     3     4    1
     5     3    25    1
     6     3    26    1
     7     4     5    1
     8     4    27    1
     9     4    28    1
    10     5     9    1
    11     5     6    2
    12     6     7    1
    13     7     8    1
    14     7    29    1
    15     8     9    2
    16     9    30    1
    17    10    11    1
    18    10    31    1
    19    11    24    1
    20    11    12    1
    21    11    32    1
    22    12    13    1
    23    12    33    1
    24    12    34    1
    25    13    14    1
    26    13    24    1
    27    13    35    1
    28    14    15    1
    29    14    36    1
    30    14    37    1
    31    15    16   am
    32    15    38    1
    33    16    17    2
    34    16    18    1
    35    18    23    1
    36    18    19    1
    37    18    20    1
    38    20    21    1
    39    20    39    1
    40    20    40    1
    41    21    22    1
    42    21    41    1
    43    21    42    1
    44    22    23    1
    45    23    43    1
    46    23    44    1
    47    24    45    1
    48    24    46    1
@<TRIPOS>SUBSTRUCTURE
     1 ZINC001411334959        1 TEMP              0 ****  ****    0 ROOT


##########                                Name:    ZINC000807524472
##########                DOCK_Rotatable_Bonds:                   9
##########                         Heavy_Atoms:                  28
##########                    Molecular_Weight:             410.534
##########                DOCK_Rotatable_Bonds:                   9
##########                       Formal_Charge:           0.0200006
##########                     HBond_Acceptors:                   8
##########                        HBond_Donors:                   0
##########                         Heavy_Atoms:                  28
##########                          Grid_Score:          -31.100283
##########                     Grid_vdw_energy:          -30.426558
##########                      Grid_es_energy:           -0.673726
##########           Internal_energy_repulsive:           13.810610

@<TRIPOS>MOLECULE
ZINC000807524472
 58 60 1 0 0
SMALL
USER_CHARGES


@<TRIPOS>ATOM
      1 C1         -8.5291    0.7890   66.2827 C.3     1  ZINC000807524472   -0.1500
      2 C2         -7.9236    1.2172   64.9444 C.3     1  ZINC000807524472    0.0600
      3 O3         -7.4677    0.0626   64.2367 O.3     1  ZINC000807524472   -0.3800
      4 C4         -6.6367    0.3603   63.1128 C.3     1  ZINC000807524472    0.0600
      5 C5         -7.5009    0.4734   61.8553 C.3     1  ZINC000807524472    0.0700
      6 O6         -8.0338    1.8202   61.7538 O.3     1  ZINC000807524472   -0.3500
      7 C7         -9.0404    2.0157   60.8793 C.2     1  ZINC000807524472    0.5000
      8 O8         -9.8222    2.9308   61.0477 O.2     1  ZINC000807524472   -0.4600
      9 C9         -9.1930    1.1206   59.7197 C.ar    1  ZINC000807524472   -0.1200
     10 C10        -9.9726   -0.0350   59.8211 C.ar    1  ZINC000807524472    0.0400
     11 C11       -10.1116   -0.8677   58.7324 C.ar    1  ZINC000807524472   -0.7000
     12 S12       -11.0956   -2.3235   58.8630 S.o2    1  ZINC000807524472    2.6900
     13 O13       -10.6162   -3.2221   57.8720 O.2     1  ZINC000807524472   -0.9500
     14 O14       -11.1504   -2.6482   60.2453 O.2     1  ZINC000807524472   -0.9500
     15 N15       -12.6372   -1.9149   58.4172 N.am    1  ZINC000807524472   -0.9900
     16 C16       -13.2895   -2.5810   57.2817 C.3     1  ZINC000807524472    0.1200
     17 C17       -14.6377   -3.1409   57.7466 C.3     1  ZINC000807524472   -0.1400
     18 C18       -15.4636   -2.0158   58.3744 C.3     1  ZINC000807524472   -0.1200
     19 C19       -14.7258   -1.4583   59.5937 C.3     1  ZINC000807524472   -0.1400
     20 C20       -13.3809   -0.8836   59.1535 C.3     1  ZINC000807524472    0.1200
     21 C21        -9.4821   -0.5664   57.5351 C.ar    1  ZINC000807524472    0.0200
     22 C22        -8.7086    0.5703   57.4187 C.ar    1  ZINC000807524472   -0.1800
     23 C23        -8.5607    1.4257   58.5033 C.ar    1  ZINC000807524472    0.2000
     24 N24        -7.7834    2.5703   58.3887 N.3     1  ZINC000807524472   -0.4800
     25 C25        -6.3634    2.2249   58.1233 C.3     1  ZINC000807524472    0.0400
     26 C26        -5.7882    3.5298   57.5176 C.3     1  ZINC000807524472   -0.1200
     27 C27        -6.9579    4.0547   56.6537 C.3     1  ZINC000807524472   -0.1300
     28 C28        -8.2193    3.3942   57.2404 C.3     1  ZINC000807524472    0.0400
     29 H29        -7.7728    0.2745   66.8756 H       1  ZINC000807524472    0.0600
     30 H30        -8.8770    1.6697   66.8225 H       1  ZINC000807524472    0.0700
     31 H31        -9.3688    0.1176   66.1034 H       1  ZINC000807524472    0.0700
     32 H32        -8.6799    1.7316   64.3514 H       1  ZINC000807524472    0.0500
     33 H33        -7.0839    1.8886   65.1238 H       1  ZINC000807524472    0.0500
     34 H34        -6.1187    1.3039   63.2838 H       1  ZINC000807524472    0.0600
     35 H35        -5.9052   -0.4370   62.9805 H       1  ZINC000807524472    0.0700
     36 H36        -6.8939    0.2556   60.9766 H       1  ZINC000807524472    0.0900
     37 H37        -8.3235   -0.2393   61.9145 H       1  ZINC000807524472    0.0800
     38 H38       -10.4652   -0.2749   60.7517 H       1  ZINC000807524472    0.1600
     39 H39       -13.4500   -1.8613   56.4790 H       1  ZINC000807524472    0.0800
     40 H40       -12.6592   -3.3954   56.9246 H       1  ZINC000807524472    0.0900
     41 H41       -15.1744   -3.5532   56.8922 H       1  ZINC000807524472    0.0800
     42 H42       -14.4707   -3.9252   58.4850 H       1  ZINC000807524472    0.0700
     43 H43       -15.6091   -1.2207   57.6431 H       1  ZINC000807524472    0.0700
     44 H44       -16.4331   -2.4062   58.6837 H       1  ZINC000807524472    0.0700
     45 H45       -15.3252   -0.6729   60.0540 H       1  ZINC000807524472    0.0800
     46 H46       -14.5580   -2.2584   60.3146 H       1  ZINC000807524472    0.0700
     47 H47       -12.8107   -0.5757   60.0300 H       1  ZINC000807524472    0.0900
     48 H48       -13.5458   -0.0253   58.5023 H       1  ZINC000807524472    0.0800
     49 H49        -9.5974   -1.2259   56.6876 H       1  ZINC000807524472    0.1500
     50 H50        -8.2211    0.7975   56.4822 H       1  ZINC000807524472    0.1400
     51 H51        -5.8492    1.9719   59.0506 H       1  ZINC000807524472    0.0900
     52 H52        -6.2940    1.4055   57.4079 H       1  ZINC000807524472    0.0500
     53 H53        -5.5391    4.2428   58.3036 H       1  ZINC000807524472    0.0800
     54 H54        -4.9169    3.3164   56.8985 H       1  ZINC000807524472    0.0800
     55 H55        -7.0282    5.1397   56.7310 H       1  ZINC000807524472    0.0800
     56 H56        -6.8236    3.7567   55.6139 H       1  ZINC000807524472    0.0700
     57 H57        -8.6917    2.7625   56.4881 H       1  ZINC000807524472    0.0500
     58 H58        -8.9173    4.1607   57.5770 H       1  ZINC000807524472    0.0900
@<TRIPOS>BOND
     1     1     2    1
     2     1    29    1
     3     1    30    1
     4     1    31    1
     5     2     3    1
     6     2    32    1
     7     2    33    1
     8     3     4    1
     9     4     5    1
    10     4    34    1
    11     4    35    1
    12     5     6    1
    13     5    36    1
    14     5    37    1
    15     6     7    1
    16     7     8    2
    17     7     9    1
    18     9    23   ar
    19     9    10   ar
    20    10    11   ar
    21    10    38    1
    22    11    12    1
    23    11    21   ar
    24    12    13    2
    25    12    14    2
    26    12    15   am
    27    15    20    1
    28    15    16    1
    29    16    17    1
    30    16    39    1
    31    16    40    1
    32    17    18    1
    33    17    41    1
    34    17    42    1
    35    18    19    1
    36    18    43    1
    37    18    44    1
    38    19    20    1
    39    19    45    1
    40    19    46    1
    41    20    47    1
    42    20    48    1
    43    21    22   ar
    44    21    49    1
    45    22    23   ar
    46    22    50    1
    47    23    24    1
    48    24    28    1
    49    24    25    1
    50    25    26    1
    51    25    51    1
    52    25    52    1
    53    26    27    1
    54    26    53    1
    55    26    54    1
    56    27    28    1
    57    27    55    1
    58    27    56    1
    59    28    57    1
    60    28    58    1
@<TRIPOS>SUBSTRUCTURE
     1 ZINC000807524472        1 TEMP              0 ****  ****    0 ROOT


##########                                Name:    ZINC000512239524
##########                DOCK_Rotatable_Bonds:                   9
##########                         Heavy_Atoms:                  31
##########                    Molecular_Weight:             424.518
##########                DOCK_Rotatable_Bonds:                   9
##########                       Formal_Charge:          0.00999919
##########                     HBond_Acceptors:                   7
##########                        HBond_Donors:                   1
##########                         Heavy_Atoms:                  31
##########                          Grid_Score:          -31.066288
##########                     Grid_vdw_energy:          -30.537159
##########                      Grid_es_energy:           -0.529128
##########           Internal_energy_repulsive:           29.917627

@<TRIPOS>MOLECULE
ZINC000512239524
 60 63 1 0 0
SMALL
USER_CHARGES


@<TRIPOS>ATOM
      1 C1         -6.1290    5.2745   53.5916 C.3     1  ZINC000512239524   -0.1600
      2 C2         -5.0486    4.3376   54.1356 C.3     1  ZINC000512239524    0.2000
      3 H3         -4.2214    4.9274   54.5303 H       1  ZINC000512239524    0.1100
      4 N4         -5.6128    3.5108   55.2053 N.am    1  ZINC000512239524   -0.7400
      5 C5         -5.5353    3.9214   56.4866 C.2     1  ZINC000512239524    0.7100
      6 O6         -4.9970    4.9782   56.7548 O.2     1  ZINC000512239524   -0.5800
      7 N7         -6.0543    3.1607   57.4706 N.am    1  ZINC000512239524   -0.6300
      8 C8         -5.9828    3.5977   58.8715 C.3     1  ZINC000512239524    0.1300
      9 C9         -7.3938    3.5748   59.4679 C.3     1  ZINC000512239524   -0.1100
     10 C10        -8.0027    2.1842   59.2736 C.3     1  ZINC000512239524   -0.1000
     11 C11        -9.3777    2.1479   59.8892 C.2     1  ZINC000512239524    0.5300
     12 O12       -10.2897    2.7584   59.3728 O.2     1  ZINC000512239524   -0.5300
     13 N13        -9.5942    1.4370   61.0136 N.am    1  ZINC000512239524   -0.5800
     14 C14       -10.9313    1.4003   61.6111 C.3     1  ZINC000512239524    0.1500
     15 C15       -11.7480    0.3207   60.9487 C.ar    1  ZINC000512239524   -0.1100
     16 C16       -11.1717   -0.4919   59.9904 C.ar    1  ZINC000512239524   -0.0900
     17 C17       -11.9208   -1.4822   59.3829 C.ar    1  ZINC000512239524   -0.1200
     18 C18       -13.2459   -1.6602   59.7340 C.ar    1  ZINC000512239524   -0.1100
     19 C19       -13.8219   -0.8481   60.6930 C.ar    1  ZINC000512239524   -0.1200
     20 C20       -13.0716    0.1394   61.3037 C.ar    1  ZINC000512239524   -0.1100
     21 C21        -8.4923    0.7010   61.6383 C.3     1  ZINC000512239524    0.0700
     22 C22        -7.4503    1.5114   62.4118 C.3     1  ZINC000512239524   -0.1900
     23 C23        -8.4584    0.6428   63.1668 C.3     1  ZINC000512239524   -0.2000
     24 C24        -8.1052    1.8747   57.7783 C.3     1  ZINC000512239524   -0.1400
     25 C25        -6.7077    1.8813   57.1623 C.3     1  ZINC000512239524    0.1100
     26 C26        -4.5480    3.4500   53.0254 C.ar    1  ZINC000512239524   -0.0800
     27 C27        -5.4135    2.6081   52.3451 C.ar    1  ZINC000512239524   -0.1400
     28 C28        -4.9186    1.8083   51.3320 C.ar    1  ZINC000512239524    0.1000
     29 N29        -3.6403    1.8391   51.0103 N.ar    1  ZINC000512239524   -0.4600
     30 C30        -2.7865    2.6267   51.6345 C.ar    1  ZINC000512239524    0.0800
     31 C31        -3.2094    3.4601   52.6556 C.ar    1  ZINC000512239524    0.0600
     32 F32        -2.3297    4.2647   53.2912 F       1  ZINC000512239524   -0.1200
     33 H33        -6.4911    5.9165   54.3945 H       1  ZINC000512239524    0.0700
     34 H34        -5.7092    5.8898   52.7957 H       1  ZINC000512239524    0.0700
     35 H35        -6.9563    4.6847   53.1969 H       1  ZINC000512239524    0.0600
     36 H36        -6.0422    2.6676   54.9913 H       1  ZINC000512239524    0.3900
     37 H37        -5.3378    2.9217   59.4328 H       1  ZINC000512239524    0.0700
     38 H38        -5.5828    4.6106   58.9183 H       1  ZINC000512239524    0.1000
     39 H39        -7.3426    3.8042   60.5322 H       1  ZINC000512239524    0.0900
     40 H40        -8.0135    4.3170   58.9646 H       1  ZINC000512239524    0.0800
     41 H41        -7.3692    1.4397   59.7558 H       1  ZINC000512239524    0.1000
     42 H42       -10.8472    1.1897   62.6772 H       1  ZINC000512239524    0.0900
     43 H43       -11.4195    2.3643   61.4685 H       1  ZINC000512239524    0.1000
     44 H44       -10.1365   -0.3530   59.7160 H       1  ZINC000512239524    0.1300
     45 H45       -11.4708   -2.1167   58.6336 H       1  ZINC000512239524    0.1200
     46 H46       -13.8313   -2.4335   59.2588 H       1  ZINC000512239524    0.1200
     47 H47       -14.8572   -0.9869   60.9672 H       1  ZINC000512239524    0.1200
     48 H48       -13.5216    0.7739   62.0529 H       1  ZINC000512239524    0.1200
     49 H49        -8.1446   -0.1768   61.0935 H       1  ZINC000512239524    0.1300
     50 H50        -6.4167    1.1670   62.3759 H       1  ZINC000512239524    0.1100
     51 H51        -7.5846    2.5921   62.4558 H       1  ZINC000512239524    0.1000
     52 H52        -9.2560    1.1523   63.7076 H       1  ZINC000512239524    0.1100
     53 H53        -8.0882   -0.2729   63.6276 H       1  ZINC000512239524    0.1000
     54 H54        -8.5605    0.8940   57.6401 H       1  ZINC000512239524    0.0900
     55 H55        -8.7183    2.6329   57.2910 H       1  ZINC000512239524    0.0700
     56 H56        -6.7842    1.7597   56.0818 H       1  ZINC000512239524    0.0800
     57 H57        -6.1190    1.0663   57.5832 H       1  ZINC000512239524    0.0800
     58 H58        -6.4617    2.5769   52.6035 H       1  ZINC000512239524    0.1400
     59 H59        -5.5873    1.1498   50.7975 H       1  ZINC000512239524    0.1700
     60 H60        -1.7466    2.6243   51.3433 H       1  ZINC000512239524    0.1700
@<TRIPOS>BOND
     1     1     2    1
     2     1    33    1
     3     1    34    1
     4     1    35    1
     5     2     3    1
     6     2     4    1
     7     2    26    1
     8     4     5   am
     9     4    36    1
    10     5     6    2
    11     5     7   am
    12     7    25    1
    13     7     8    1
    14     8     9    1
    15     8    37    1
    16     8    38    1
    17     9    10    1
    18     9    39    1
    19     9    40    1
    20    10    11    1
    21    10    24    1
    22    10    41    1
    23    11    12    2
    24    11    13   am
    25    13    14    1
    26    13    21    1
    27    14    15    1
    28    14    42    1
    29    14    43    1
    30    15    20   ar
    31    15    16   ar
    32    16    17   ar
    33    16    44    1
    34    17    18   ar
    35    17    45    1
    36    18    19   ar
    37    18    46    1
    38    19    20   ar
    39    19    47    1
    40    20    48    1
    41    21    23    1
    42    21    22    1
    43    21    49    1
    44    22    23    1
    45    22    50    1
    46    22    51    1
    47    23    52    1
    48    23    53    1
    49    24    25    1
    50    24    54    1
    51    24    55    1
    52    25    56    1
    53    25    57    1
    54    26    31   ar
    55    26    27   ar
    56    27    28   ar
    57    27    58    1
    58    28    29   ar
    59    28    59    1
    60    29    30   ar
    61    30    31   ar
    62    30    60    1
    63    31    32    1
@<TRIPOS>SUBSTRUCTURE
     1 ZINC000512239524        1 TEMP              0 ****  ****    0 ROOT


##########                                Name:    ZINC000508571532
##########                DOCK_Rotatable_Bonds:                   9
##########                         Heavy_Atoms:                  30
##########                    Molecular_Weight:             422.407
##########                DOCK_Rotatable_Bonds:                   9
##########                       Formal_Charge:           0.0100001
##########                     HBond_Acceptors:                  10
##########                        HBond_Donors:                   0
##########                         Heavy_Atoms:                  30
##########                          Grid_Score:          -31.057817
##########                     Grid_vdw_energy:          -31.539162
##########                      Grid_es_energy:            0.481343
##########           Internal_energy_repulsive:           24.305891

@<TRIPOS>MOLECULE
ZINC000508571532
 51 53 1 0 0
SMALL
USER_CHARGES


@<TRIPOS>ATOM
      1 C1        -13.1223   -2.0109   59.8611 C.3     1  ZINC000508571532    0.0300
      2 O2        -12.1268   -2.9060   59.3615 O.3     1  ZINC000508571532   -0.3200
      3 C3        -11.3922   -2.4816   58.2988 C.ar    1  ZINC000508571532    0.0900
      4 C4        -11.6094   -1.2199   57.7654 C.ar    1  ZINC000508571532   -0.1700
      5 C5        -10.8632   -0.7886   56.6858 C.ar    1  ZINC000508571532   -0.1100
      6 C6         -9.8965   -1.6173   56.1357 C.ar    1  ZINC000508571532    0.0900
      7 O7         -9.1624   -1.1930   55.0726 O.3     1  ZINC000508571532   -0.3100
      8 C8         -9.1836    0.2070   54.7869 C.3     1  ZINC000508571532    0.1500
      9 C9         -8.1200    0.5281   53.7687 C.2     1  ZINC000508571532    0.1700
     10 N10        -7.5766   -0.3076   52.9298 N.2     1  ZINC000508571532   -0.2500
     11 N11        -6.7053    0.2991   52.2053 N.2     1  ZINC000508571532   -0.3000
     12 C12        -6.6458    1.5648   52.5459 C.2     1  ZINC000508571532    0.3500
     13 N13        -5.8235    2.5304   51.9874 N.3     1  ZINC000508571532   -0.4600
     14 C14        -6.6119    3.6518   51.4594 C.3     1  ZINC000508571532    0.0300
     15 C15        -4.8268    2.9993   52.9594 C.3     1  ZINC000508571532    0.1100
     16 C16        -3.4438    2.8116   52.3910 C.ar    1  ZINC000508571532   -0.0900
     17 C17        -3.2372    1.9222   51.3547 C.ar    1  ZINC000508571532   -0.0600
     18 C18        -1.9683    1.7491   50.8331 C.ar    1  ZINC000508571532   -0.1300
     19 C19        -0.9036    2.4659   51.3466 C.ar    1  ZINC000508571532   -0.0700
     20 C20        -1.1050    3.3572   52.3830 C.ar    1  ZINC000508571532   -0.1900
     21 C21        -2.3778    3.5365   52.9045 C.ar    1  ZINC000508571532    0.1100
     22 O22        -2.5786    4.4126   53.9238 O.3     1  ZINC000508571532   -0.3100
     23 C23        -1.8774    4.1608   55.1432 C.3     1  ZINC000508571532    0.6000
     24 F24        -2.7443    4.3433   56.2260 F       1  ZINC000508571532   -0.1600
     25 F25        -1.4008    2.8454   55.1440 F       1  ZINC000508571532   -0.1300
     26 F26        -0.8006    5.0470   55.2535 F       1  ZINC000508571532   -0.1600
     27 N27        -7.5506    1.7520   53.5500 N.pl3   1  ZINC000508571532   -0.4500
     28 C28        -7.8440    3.0026   54.2544 C.3     1  ZINC000508571532    0.0800
     29 C29        -9.6784   -2.8784   56.6700 C.ar    1  ZINC000508571532   -0.1700
     30 C30       -10.4220   -3.3082   57.7519 C.ar    1  ZINC000508571532   -0.1100
     31 H31       -13.6337   -2.4713   60.7064 H       1  ZINC000508571532    0.1000
     32 H32       -12.6483   -1.0840   60.1842 H       1  ZINC000508571532    0.0600
     33 H33       -13.8444   -1.7945   59.0737 H       1  ZINC000508571532    0.0600
     34 H34       -12.3620   -0.5747   58.1938 H       1  ZINC000508571532    0.1400
     35 H35       -11.0328    0.1936   56.2699 H       1  ZINC000508571532    0.1300
     36 H36       -10.1609    0.4822   54.3905 H       1  ZINC000508571532    0.0800
     37 H37        -8.9917    0.7675   55.7019 H       1  ZINC000508571532    0.1000
     38 H38        -7.0697    4.1952   52.2859 H       1  ZINC000508571532    0.0600
     39 H39        -5.9599    4.3228   50.9002 H       1  ZINC000508571532    0.0800
     40 H40        -7.3912    3.2695   50.8001 H       1  ZINC000508571532    0.0700
     41 H41        -4.9930    4.0559   53.1693 H       1  ZINC000508571532    0.0700
     42 H42        -4.9214    2.4264   53.8819 H       1  ZINC000508571532    0.0900
     43 H43        -4.0674    1.3611   50.9518 H       1  ZINC000508571532    0.1400
     44 H44        -1.8087    1.0526   50.0233 H       1  ZINC000508571532    0.1300
     45 H45         0.0865    2.3288   50.9378 H       1  ZINC000508571532    0.1400
     46 H46        -0.2729    3.9167   52.7841 H       1  ZINC000508571532    0.1400
     47 H47        -8.7021    3.4884   53.7899 H       1  ZINC000508571532    0.0900
     48 H48        -8.0699    2.7870   55.2988 H       1  ZINC000508571532    0.0900
     49 H49        -6.9785    3.6627   54.1986 H       1  ZINC000508571532    0.1000
     50 H50        -8.9255   -3.5236   56.2417 H       1  ZINC000508571532    0.1400
     51 H51       -10.2522   -4.2903   58.1680 H       1  ZINC000508571532    0.1400
@<TRIPOS>BOND
     1     1     2    1
     2     1    31    1
     3     1    32    1
     4     1    33    1
     5     2     3    1
     6     3    30   ar
     7     3     4   ar
     8     4     5   ar
     9     4    34    1
    10     5     6   ar
    11     5    35    1
    12     6     7    1
    13     6    29   ar
    14     7     8    1
    15     8     9    1
    16     8    36    1
    17     8    37    1
    18     9    27    1
    19     9    10    2
    20    10    11    1
    21    11    12    2
    22    12    13    1
    23    12    27    1
    24    13    14    1
    25    13    15    1
    26    14    38    1
    27    14    39    1
    28    14    40    1
    29    15    16    1
    30    15    41    1
    31    15    42    1
    32    16    21   ar
    33    16    17   ar
    34    17    18   ar
    35    17    43    1
    36    18    19   ar
    37    18    44    1
    38    19    20   ar
    39    19    45    1
    40    20    21   ar
    41    20    46    1
    42    21    22    1
    43    22    23    1
    44    23    24    1
    45    23    25    1
    46    23    26    1
    47    27    28    1
    48    28    47    1
    49    28    48    1
    50    28    49    1
    51    29    30   ar
    52    29    50    1
    53    30    51    1
@<TRIPOS>SUBSTRUCTURE
     1 ZINC000508571532        1 TEMP              0 ****  ****    0 ROOT


##########                                Name:    ZINC000547864253
##########                DOCK_Rotatable_Bonds:                   6
##########                         Heavy_Atoms:                  30
##########                    Molecular_Weight:             422.548
##########                DOCK_Rotatable_Bonds:                   6
##########                       Formal_Charge:           0.0300002
##########                     HBond_Acceptors:                   6
##########                        HBond_Donors:                   2
##########                         Heavy_Atoms:                  30
##########                          Grid_Score:          -31.003580
##########                     Grid_vdw_energy:          -29.588345
##########                      Grid_es_energy:           -1.415235
##########           Internal_energy_repulsive:           15.509645

@<TRIPOS>MOLECULE
ZINC000547864253
 56 60 1 0 0
SMALL
USER_CHARGES


@<TRIPOS>ATOM
      1 O1        -10.8226    0.8120   57.9699 O.2     1  ZINC000547864253   -0.5300
      2 C2        -10.8245   -0.3581   57.6507 C.2     1  ZINC000547864253    0.5400
      3 N3        -10.1832   -0.7525   56.5327 N.am    1  ZINC000547864253   -0.7200
      4 C4         -9.4893    0.2330   55.7000 C.3     1  ZINC000547864253    0.1300
      5 C5         -9.1537   -0.3911   54.3439 C.3     1  ZINC000547864253    0.0200
      6 H6         -8.8239   -1.4198   54.4891 H       1  ZINC000547864253    0.0900
      7 C7        -10.3789   -0.3754   53.4667 C.2     1  ZINC000547864253   -0.1600
      8 C8        -11.0734   -1.4443   53.0460 C.2     1  ZINC000547864253    0.0600
      9 N9        -12.1234   -1.0412   52.2666 N.pl3   1  ZINC000547864253   -0.5900
     10 C10       -12.1303    0.3319   52.1640 C.ar    1  ZINC000547864253    0.1000
     11 C11       -12.9561    1.2392   51.5088 C.ar    1  ZINC000547864253   -0.1300
     12 C12       -12.6961    2.5894   51.5981 C.ar    1  ZINC000547864253   -0.1000
     13 C13       -11.6173    3.0551   52.3365 C.ar    1  ZINC000547864253   -0.1400
     14 C14       -10.7931    2.1814   52.9884 C.ar    1  ZINC000547864253   -0.0700
     15 C15       -11.0416    0.8096   52.9165 C.ar    1  ZINC000547864253   -0.1000
     16 C16        -8.0538    0.4008   53.6849 C.ar    1  ZINC000547864253   -0.0700
     17 C17        -7.3212   -0.1588   52.6549 C.ar    1  ZINC000547864253   -0.1100
     18 C18        -6.3123    0.5675   52.0503 C.ar    1  ZINC000547864253   -0.1200
     19 C19        -6.0363    1.8536   52.4756 C.ar    1  ZINC000547864253   -0.1200
     20 C20        -6.7696    2.4135   53.5049 C.ar    1  ZINC000547864253   -0.1100
     21 C21        -7.7814    1.6888   54.1066 C.ar    1  ZINC000547864253   -0.1200
     22 C22       -11.5383   -1.3718   58.5073 C.3     1  ZINC000547864253   -0.1700
     23 H23       -11.1816   -1.4542   59.5340 H       1  ZINC000547864253    0.1400
     24 C24       -12.0319   -2.6496   57.8263 C.3     1  ZINC000547864253   -0.1300
     25 C25       -13.0353   -1.5771   58.2605 C.3     1  ZINC000547864253   -0.1400
     26 C26       -13.9120   -1.8843   59.4753 C.3     1  ZINC000547864253   -0.0700
     27 C27       -15.0936   -2.7590   59.0509 C.3     1  ZINC000547864253   -0.6000
     28 S28       -16.0871   -1.8655   57.8217 S.o2    1  ZINC000547864253    2.4200
     29 O29       -17.0557   -2.7566   57.2862 O.2     1  ZINC000547864253   -0.9400
     30 O30       -16.5141   -0.6354   58.3906 O.2     1  ZINC000547864253   -0.9300
     31 C31       -14.8501   -1.5148   56.5397 C.3     1  ZINC000547864253   -0.6000
     32 C32       -13.6876   -0.7376   57.1611 C.3     1  ZINC000547864253   -0.0700
     33 H33       -10.1813   -1.6888   56.2795 H       1  ZINC000547864253    0.4000
     34 H34       -10.1322    1.1005   55.5517 H       1  ZINC000547864253    0.0800
     35 H35        -8.5689    0.5431   56.1949 H       1  ZINC000547864253    0.0700
     36 H36       -10.8382   -2.4705   53.2868 H       1  ZINC000547864253    0.1700
     37 H37       -12.7670   -1.6344   51.8485 H       1  ZINC000547864253    0.4200
     38 H38       -13.7979    0.8865   50.9313 H       1  ZINC000547864253    0.1200
     39 H39       -13.3383    3.2922   51.0882 H       1  ZINC000547864253    0.1300
     40 H40       -11.4273    4.1167   52.3961 H       1  ZINC000547864253    0.1200
     41 H41        -9.9554    2.5511   53.5610 H       1  ZINC000547864253    0.1200
     42 H42        -7.5367   -1.1636   52.3228 H       1  ZINC000547864253    0.1200
     43 H43        -5.7393    0.1300   51.2461 H       1  ZINC000547864253    0.1200
     44 H44        -5.2477    2.4208   52.0037 H       1  ZINC000547864253    0.1200
     45 H45        -6.5539    3.4182   53.8373 H       1  ZINC000547864253    0.1200
     46 H46        -8.3543    2.1262   54.9108 H       1  ZINC000547864253    0.1200
     47 H47       -11.8404   -2.7572   56.7587 H       1  ZINC000547864253    0.1100
     48 H48       -12.0003   -3.5727   58.4051 H       1  ZINC000547864253    0.1100
     49 H49       -13.3214   -2.4112   60.2248 H       1  ZINC000547864253    0.0900
     50 H50       -14.2849   -0.9516   59.8985 H       1  ZINC000547864253    0.0900
     51 H51       -14.7219   -3.6861   58.6144 H       1  ZINC000547864253    0.1400
     52 H52       -15.7093   -2.9865   59.9211 H       1  ZINC000547864253    0.1400
     53 H53       -14.4806   -2.4523   56.1242 H       1  ZINC000547864253    0.1400
     54 H54       -15.3048   -0.9190   55.7483 H       1  ZINC000547864253    0.1400
     55 H55       -14.0610    0.1929   57.5887 H       1  ZINC000547864253    0.0900
     56 H56       -12.9498   -0.5118   56.3913 H       1  ZINC000547864253    0.0900
@<TRIPOS>BOND
     1     1     2    2
     2     2     3   am
     3     2    22    1
     4     3     4    1
     5     3    33    1
     6     4     5    1
     7     4    34    1
     8     4    35    1
     9     5     6    1
    10     5     7    1
    11     5    16    1
    12     7    15    1
    13     7     8    2
    14     8     9    1
    15     8    36    1
    16     9    10    1
    17     9    37    1
    18    10    15   ar
    19    10    11   ar
    20    11    12   ar
    21    11    38    1
    22    12    13   ar
    23    12    39    1
    24    13    14   ar
    25    13    40    1
    26    14    15   ar
    27    14    41    1
    28    16    21   ar
    29    16    17   ar
    30    17    18   ar
    31    17    42    1
    32    18    19   ar
    33    18    43    1
    34    19    20   ar
    35    19    44    1
    36    20    21   ar
    37    20    45    1
    38    21    46    1
    39    22    23    1
    40    22    25    1
    41    22    24    1
    42    24    25    1
    43    24    47    1
    44    24    48    1
    45    25    32    1
    46    25    26    1
    47    26    27    1
    48    26    49    1
    49    26    50    1
    50    27    28    1
    51    27    51    1
    52    27    52    1
    53    28    29    2
    54    28    30    2
    55    28    31    1
    56    31    32    1
    57    31    53    1
    58    31    54    1
    59    32    55    1
    60    32    56    1
@<TRIPOS>SUBSTRUCTURE
     1 ZINC000547864253        1 TEMP              0 ****  ****    0 ROOT


##########                                Name:    ZINC001105194920
##########                DOCK_Rotatable_Bonds:                   8
##########                         Heavy_Atoms:                  25
##########                    Molecular_Weight:             346.392
##########                DOCK_Rotatable_Bonds:                   8
##########                       Formal_Charge:          -0.0100007
##########                     HBond_Acceptors:                  10
##########                        HBond_Donors:                   3
##########                         Heavy_Atoms:                  25
##########                          Grid_Score:          -31.002504
##########                     Grid_vdw_energy:          -30.717733
##########                      Grid_es_energy:           -0.284771
##########           Internal_energy_repulsive:           10.260737

@<TRIPOS>MOLECULE
ZINC001105194920
 47 49 1 0 0
SMALL
USER_CHARGES


@<TRIPOS>ATOM
      1 C1        -13.5477   -2.4872   57.4882 C.3     1  ZINC001105194920    0.0300
      2 O2        -12.3435   -2.6886   56.7456 O.3     1  ZINC001105194920   -0.3900
      3 C3        -11.3080   -1.7527   57.0523 C.3     1  ZINC001105194920    0.0700
      4 C4        -10.0729   -2.0627   56.2043 C.3     1  ZINC001105194920    0.0900
      5 H5         -9.3609   -1.2414   56.2856 H       1  ZINC001105194920    0.0900
      6 C6         -9.4217   -3.3537   56.7045 C.3     1  ZINC001105194920   -0.1800
      7 N7        -10.4717   -2.2277   54.8000 N.3     1  ZINC001105194920   -0.6800
      8 C8        -10.8615   -0.9406   54.2088 C.3     1  ZINC001105194920    0.1400
      9 C9         -9.6701   -0.0182   54.1835 C.2     1  ZINC001105194920   -0.0200
     10 C10        -9.3959    0.9748   55.0615 C.2     1  ZINC001105194920   -0.0200
     11 N11        -8.2339    1.5322   54.6493 N.pl3   1  ZINC001105194920   -0.2800
     12 C12        -7.5419    2.6506   55.2948 C.3     1  ZINC001105194920    0.1000
     13 C13        -6.0412    2.7269   54.9606 C.3     1  ZINC001105194920    0.1100
     14 N14        -6.4387    3.5931   53.8338 N.am    1  ZINC001105194920   -0.6300
     15 C15        -5.8912    3.9033   52.6419 C.2     1  ZINC001105194920    0.6200
     16 O16        -6.4629    4.6703   51.8917 O.2     1  ZINC001105194920   -0.5400
     17 C17        -4.5967    3.3111   52.2471 C.ar    1  ZINC001105194920   -0.0600
     18 N18        -3.4678    3.7408   52.8035 N.ar    1  ZINC001105194920   -0.3700
     19 C19        -2.3150    3.2105   52.4491 C.ar    1  ZINC001105194920   -0.0200
     20 C20        -2.2702    2.2033   51.4958 C.ar    1  ZINC001105194920    0.1500
     21 N21        -3.3828    1.7666   50.9343 N.ar    1  ZINC001105194920   -0.5100
     22 C22        -4.5525    2.2874   51.2863 C.ar    1  ZINC001105194920    0.4200
     23 N23        -5.7200    1.8328   50.7011 N.pl3   1  ZINC001105194920   -0.8100
     24 C24        -7.6764    3.9835   54.5363 C.3     1  ZINC001105194920    0.1100
     25 N25        -7.8408    0.9108   53.5929 N.2     1  ZINC001105194920   -0.0800
     26 N26        -8.6725   -0.0234   53.2923 N.2     1  ZINC001105194920   -0.2600
     27 H27       -13.9411   -1.4924   57.2795 H       1  ZINC001105194920    0.0400
     28 H28       -14.2833   -3.2373   57.1979 H       1  ZINC001105194920    0.0800
     29 H29       -13.3369   -2.5784   58.5538 H       1  ZINC001105194920    0.0400
     30 H30       -11.6547   -0.7427   56.8336 H       1  ZINC001105194920    0.0600
     31 H31       -11.0515   -1.8281   58.1090 H       1  ZINC001105194920    0.0500
     32 H32       -10.1338   -4.1750   56.6231 H       1  ZINC001105194920    0.0700
     33 H33        -8.5417   -3.5746   56.1003 H       1  ZINC001105194920    0.0500
     34 H34        -9.1257   -3.2313   57.7464 H       1  ZINC001105194920    0.0600
     35 H35        -9.7364   -2.6640   54.2642 H       1  ZINC001105194920    0.3500
     36 H36       -11.2183   -1.1013   53.1915 H       1  ZINC001105194920    0.0900
     37 H37       -11.6555   -0.4922   54.8059 H       1  ZINC001105194920    0.0500
     38 H38        -9.9863    1.2644   55.9183 H       1  ZINC001105194920    0.1800
     39 H39        -7.7605    2.7278   56.3599 H       1  ZINC001105194920    0.1500
     40 H40        -5.4475    3.2373   55.7190 H       1  ZINC001105194920    0.1200
     41 H41        -5.6108    1.7742   54.6517 H       1  ZINC001105194920    0.1000
     42 H42        -1.4000    3.5620   52.9026 H       1  ZINC001105194920    0.1800
     43 H43        -1.3206    1.7744   51.2115 H       1  ZINC001105194920    0.1800
     44 H44        -5.6949    1.0802   50.0898 H       1  ZINC001105194920    0.4000
     45 H45        -6.5641    2.2665   50.9020 H       1  ZINC001105194920    0.4300
     46 H46        -8.5518    4.0340   53.8888 H       1  ZINC001105194920    0.1100
     47 H47        -7.5632    4.8630   55.1701 H       1  ZINC001105194920    0.1200
@<TRIPOS>BOND
     1     1     2    1
     2     1    27    1
     3     1    28    1
     4     1    29    1
     5     2     3    1
     6     3     4    1
     7     3    30    1
     8     3    31    1
     9     4     5    1
    10     4     6    1
    11     4     7    1
    12     6    32    1
    13     6    33    1
    14     6    34    1
    15     7     8    1
    16     7    35    1
    17     8     9    1
    18     8    36    1
    19     8    37    1
    20     9    26    1
    21     9    10    2
    22    10    11    1
    23    10    38    1
    24    11    12    1
    25    11    25    1
    26    12    24    1
    27    12    13    1
    28    12    39    1
    29    13    14    1
    30    13    40    1
    31    13    41    1
    32    14    15   am
    33    14    24    1
    34    15    16    2
    35    15    17    1
    36    17    22   ar
    37    17    18   ar
    38    18    19   ar
    39    19    20   ar
    40    19    42    1
    41    20    21   ar
    42    20    43    1
    43    21    22   ar
    44    22    23    1
    45    23    44    1
    46    23    45    1
    47    24    46    1
    48    24    47    1
    49    25    26    2
@<TRIPOS>SUBSTRUCTURE
     1 ZINC001105194920        1 TEMP              0 ****  ****    0 ROOT


##########                                Name:    ZINC000572257265
##########                DOCK_Rotatable_Bonds:                  11
##########                         Heavy_Atoms:                  24
##########                    Molecular_Weight:             393.509
##########                DOCK_Rotatable_Bonds:                  11
##########                       Formal_Charge:          -0.0100002
##########                     HBond_Acceptors:                  11
##########                        HBond_Donors:                   3
##########                         Heavy_Atoms:                  24
##########                          Grid_Score:          -30.999153
##########                     Grid_vdw_energy:          -29.612658
##########                      Grid_es_energy:           -1.386495
##########           Internal_energy_repulsive:           15.173994

@<TRIPOS>MOLECULE
ZINC000572257265
 43 43 1 0 0
SMALL
USER_CHARGES


@<TRIPOS>ATOM
      1 C1          1.7573    1.2269   60.0437 C.3     1  ZINC000572257265   -0.1300
      2 S2          1.0900    2.9099   59.9296 S.3     1  ZINC000572257265   -0.2200
      3 C3         -0.0537    2.8011   58.5258 C.3     1  ZINC000572257265   -0.1300
      4 C4          0.7309    2.9232   57.2180 C.3     1  ZINC000572257265    0.1500
      5 C5          1.5986    4.1828   57.2595 C.3     1  ZINC000572257265   -0.1500
      6 O6          1.5657    1.7750   57.0545 O.3     1  ZINC000572257265   -0.5400
      7 C7         -0.2458    3.0151   56.0439 C.3     1  ZINC000572257265    0.0900
      8 N8          0.4510    3.5458   54.8695 N.am    1  ZINC000572257265   -1.1100
      9 S9         -0.2528    4.7345   53.9562 S.o2    1  ZINC000572257265    2.6900
     10 O10        -0.5913    5.7828   54.8539 O.2     1  ZINC000572257265   -0.9400
     11 O11         0.5864    4.9208   52.8247 O.2     1  ZINC000572257265   -0.9500
     12 C12        -1.7752    4.0908   53.3460 C.ar    1  ZINC000572257265   -0.6300
     13 C13        -2.9699    4.6907   53.6977 C.ar    1  ZINC000572257265   -0.0400
     14 C14        -4.1643    4.1857   53.2191 C.ar    1  ZINC000572257265   -0.0400
     15 C15        -4.1640    3.0808   52.3883 C.ar    1  ZINC000572257265   -0.6300
     16 S16        -5.6865    2.4367   51.7786 S.o2    1  ZINC000572257265    2.7000
     17 O17        -6.5269    3.5564   51.5347 O.2     1  ZINC000572257265   -0.9400
     18 O18        -5.3482    1.4863   50.7779 O.2     1  ZINC000572257265   -0.9400
     19 N19        -6.3883    1.5856   53.0137 N.am    1  ZINC000572257265   -1.1200
     20 C20        -6.7264    2.2609   54.2691 C.3     1  ZINC000572257265    0.2200
     21 C21        -7.7676    1.4949   54.9733 C.1     1  ZINC000572257265    0.1900
     22 N22        -8.5711    0.9038   55.5168 N.1     1  ZINC000572257265   -0.3900
     23 C23        -2.9693    2.4816   52.0355 C.ar    1  ZINC000572257265   -0.0400
     24 C24        -1.7746    2.9890   52.5111 C.ar    1  ZINC000572257265   -0.0400
     25 H25         2.2613    0.9720   59.1114 H       1  ZINC000572257265    0.0800
     26 H26         2.4687    1.1732   60.8678 H       1  ZINC000572257265    0.1000
     27 H27         0.9429    0.5243   60.2203 H       1  ZINC000572257265    0.0800
     28 H28        -0.5702    1.8416   58.5514 H       1  ZINC000572257265    0.0900
     29 H29        -0.7835    3.6083   58.5883 H       1  ZINC000572257265    0.0900
     30 H30         2.2944    4.1172   58.0959 H       1  ZINC000572257265    0.0800
     31 H31         2.1576    4.2698   56.3278 H       1  ZINC000572257265    0.0700
     32 H32         0.9618    5.0586   57.3843 H       1  ZINC000572257265    0.0800
     33 H33         1.0821    0.9382   57.0242 H       1  ZINC000572257265    0.3800
     34 H34        -0.6360    2.0229   55.8174 H       1  ZINC000572257265    0.0900
     35 H35        -1.0697    3.6780   56.3078 H       1  ZINC000572257265    0.0800
     36 H36         1.3245    3.2008   54.6269 H       1  ZINC000572257265    0.4300
     37 H37        -2.9701    5.5540   54.3468 H       1  ZINC000572257265    0.1500
     38 H38        -5.0977    4.6540   53.4945 H       1  ZINC000572257265    0.1500
     39 H39        -6.5755    0.6400   52.9060 H       1  ZINC000572257265    0.4300
     40 H40        -5.8375    2.3277   54.8965 H       1  ZINC000572257265    0.1100
     41 H41        -7.0957    3.2636   54.0542 H       1  ZINC000572257265    0.1300
     42 H42        -2.9691    1.6186   51.3861 H       1  ZINC000572257265    0.1600
     43 H43        -0.8412    2.5209   52.2354 H       1  ZINC000572257265    0.1500
@<TRIPOS>BOND
     1     1     2    1
     2     1    25    1
     3     1    26    1
     4     1    27    1
     5     2     3    1
     6     3     4    1
     7     3    28    1
     8     3    29    1
     9     4     5    1
    10     4     6    1
    11     4     7    1
    12     5    30    1
    13     5    31    1
    14     5    32    1
    15     6    33    1
    16     7     8    1
    17     7    34    1
    18     7    35    1
    19     8     9   am
    20     8    36    1
    21     9    10    2
    22     9    11    2
    23     9    12    1
    24    12    24   ar
    25    12    13   ar
    26    13    14   ar
    27    13    37    1
    28    14    15   ar
    29    14    38    1
    30    15    16    1
    31    15    23   ar
    32    16    17    2
    33    16    18    2
    34    16    19   am
    35    19    20    1
    36    19    39    1
    37    20    21    1
    38    20    40    1
    39    20    41    1
    40    21    22    3
    41    23    24   ar
    42    23    42    1
    43    24    43    1
@<TRIPOS>SUBSTRUCTURE
     1 ZINC000572257265        1 TEMP              0 ****  ****    0 ROOT


##########                                Name:    ZINC000464139057
##########                DOCK_Rotatable_Bonds:                   9
##########                         Heavy_Atoms:                  30
##########                    Molecular_Weight:              413.56
##########                DOCK_Rotatable_Bonds:                   9
##########                       Formal_Charge:         2.38419e-07
##########                     HBond_Acceptors:                   6
##########                        HBond_Donors:                   2
##########                         Heavy_Atoms:                  30
##########                          Grid_Score:          -30.984026
##########                     Grid_vdw_energy:          -29.901274
##########                      Grid_es_energy:           -1.082752
##########           Internal_energy_repulsive:           13.670553

@<TRIPOS>MOLECULE
ZINC000464139057
 65 67 1 0 0
SMALL
USER_CHARGES


@<TRIPOS>ATOM
      1 C1         -7.2062    3.4471   54.3221 C.3     1  ZINC000464139057   -0.1800
      2 C2         -6.7772    4.2554   53.0960 C.3     1  ZINC000464139057    0.0700
      3 H3         -7.6523    4.7203   52.6419 H       1  ZINC000464139057    0.1200
      4 C4         -5.7829    5.3419   53.5212 C.3     1  ZINC000464139057    0.0800
      5 N5         -4.5389    4.6877   53.9571 N.am    1  ZINC000464139057   -0.6100
      6 C6         -3.9703    4.9962   55.1395 C.2     1  ZINC000464139057    0.5600
      7 O7         -4.4851    5.8258   55.8634 O.2     1  ZINC000464139057   -0.5300
      8 C8         -2.7203    4.3255   55.5560 C.ar    1  ZINC000464139057   -0.1200
      9 C9         -2.7423    3.3726   56.5756 C.ar    1  ZINC000464139057   -0.0900
     10 C10        -1.5724    2.7501   56.9592 C.ar    1  ZINC000464139057   -0.1000
     11 C11        -0.3791    3.0689   56.3357 C.ar    1  ZINC000464139057   -0.0900
     12 C12         0.8951    2.3852   56.7603 C.3     1  ZINC000464139057    0.1800
     13 N13         0.9165    2.2547   58.2192 N.am    1  ZINC000464139057   -0.7400
     14 C14         2.0918    2.2588   58.8790 C.2     1  ZINC000464139057    0.7000
     15 O15         3.1341    2.3723   58.2634 O.2     1  ZINC000464139057   -0.5900
     16 N16         2.1116    2.1371   60.2211 N.am    1  ZINC000464139057   -0.7500
     17 C17         3.3892    2.1398   60.9380 C.3     1  ZINC000464139057    0.1400
     18 C18         3.9109    0.7063   61.0558 C.3     1  ZINC000464139057   -0.0900
     19 C19         2.9119   -0.1315   61.8115 C.2     1  ZINC000464139057   -0.1200
     20 C20         1.9791   -0.7585   61.1678 C.2     1  ZINC000464139057   -0.1500
     21 C21         0.9692   -1.6034   61.9146 C.3     1  ZINC000464139057   -0.0900
     22 C22         1.6678   -2.8681   62.4188 C.3     1  ZINC000464139057   -0.1100
     23 C23         2.3385   -2.6150   63.7573 C.3     1  ZINC000464139057   -0.1200
     24 C24         3.4987   -1.6383   63.6819 C.3     1  ZINC000464139057   -0.1100
     25 C25         3.0078   -0.2406   63.3183 C.3     1  ZINC000464139057   -0.0800
     26 C26        -0.3504    4.0123   55.3240 C.ar    1  ZINC000464139057   -0.1000
     27 C27        -1.5140    4.6382   54.9273 C.ar    1  ZINC000464139057   -0.0700
     28 C28        -3.9343    3.6865   53.0641 C.3     1  ZINC000464139057    0.0700
     29 C29        -5.0187    2.6807   52.6612 C.3     1  ZINC000464139057    0.0700
     30 H30        -5.3179    2.0991   53.5331 H       1  ZINC000464139057    0.0700
     31 C31        -4.4704    1.7420   51.5844 C.3     1  ZINC000464139057   -0.1500
     32 O32        -6.1510    3.3881   52.1475 O.3     1  ZINC000464139057   -0.3700
     33 H33        -6.3306    2.9825   54.7756 H       1  ZINC000464139057    0.0600
     34 H34        -7.6819    4.1092   55.0456 H       1  ZINC000464139057    0.0700
     35 H35        -7.9118    2.6735   54.0187 H       1  ZINC000464139057    0.0700
     36 H36        -5.5754    6.0002   52.6775 H       1  ZINC000464139057    0.0800
     37 H37        -6.2014    5.9205   54.3447 H       1  ZINC000464139057    0.1000
     38 H38        -3.6730    3.1235   57.0635 H       1  ZINC000464139057    0.1300
     39 H39        -1.5880    2.0126   57.7480 H       1  ZINC000464139057    0.1300
     40 H40         0.9451    1.3955   56.3062 H       1  ZINC000464139057    0.0800
     41 H41         1.7507    2.9773   56.4359 H       1  ZINC000464139057    0.0800
     42 H42         0.0849    2.1653   58.7106 H       1  ZINC000464139057    0.4000
     43 H43         1.2799    2.0477   60.7123 H       1  ZINC000464139057    0.4000
     44 H44         4.1116    2.7454   60.3909 H       1  ZINC000464139057    0.0700
     45 H45         3.2457    2.5571   61.9347 H       1  ZINC000464139057    0.0700
     46 H46         4.0548    0.2890   60.0591 H       1  ZINC000464139057    0.0700
     47 H47         4.8612    0.7082   61.5896 H       1  ZINC000464139057    0.0800
     48 H48         1.9213   -0.6779   60.0923 H       1  ZINC000464139057    0.1100
     49 H49         0.5759   -1.0405   62.7611 H       1  ZINC000464139057    0.0700
     50 H50         0.1546   -1.8777   61.2443 H       1  ZINC000464139057    0.0700
     51 H51         0.9317   -3.6641   62.5311 H       1  ZINC000464139057    0.0600
     52 H52         2.4203   -3.1760   61.6928 H       1  ZINC000464139057    0.0600
     53 H53         1.5955   -2.2207   64.4506 H       1  ZINC000464139057    0.0600
     54 H54         2.7064   -3.5638   64.1478 H       1  ZINC000464139057    0.0600
     55 H55         4.0011   -1.6025   64.6486 H       1  ZINC000464139057    0.0600
     56 H56         4.2047   -1.9776   62.9238 H       1  ZINC000464139057    0.0600
     57 H57         3.7101    0.5033   63.6944 H       1  ZINC000464139057    0.0700
     58 H58         2.0238   -0.0729   63.7564 H       1  ZINC000464139057    0.0700
     59 H59         0.5844    4.2563   54.8412 H       1  ZINC000464139057    0.1300
     60 H60        -1.4904    5.3742   54.1372 H       1  ZINC000464139057    0.1300
     61 H61        -3.5408    4.1782   52.1745 H       1  ZINC000464139057    0.0800
     62 H62        -3.1288    3.1689   53.5849 H       1  ZINC000464139057    0.1000
     63 H63        -3.6056    1.2062   51.9757 H       1  ZINC000464139057    0.0800
     64 H64        -5.2418    1.0272   51.2984 H       1  ZINC000464139057    0.0700
     65 H65        -4.1730    2.3241   50.7122 H       1  ZINC000464139057    0.0700
@<TRIPOS>BOND
     1     1     2    1
     2     1    33    1
     3     1    34    1
     4     1    35    1
     5     2     3    1
     6     2    32    1
     7     2     4    1
     8     4     5    1
     9     4    36    1
    10     4    37    1
    11     5     6   am
    12     5    28    1
    13     6     7    2
    14     6     8    1
    15     8    27   ar
    16     8     9   ar
    17     9    10   ar
    18     9    38    1
    19    10    11   ar
    20    10    39    1
    21    11    12    1
    22    11    26   ar
    23    12    13    1
    24    12    40    1
    25    12    41    1
    26    13    14   am
    27    13    42    1
    28    14    15    2
    29    14    16   am
    30    16    17    1
    31    16    43    1
    32    17    18    1
    33    17    44    1
    34    17    45    1
    35    18    19    1
    36    18    46    1
    37    18    47    1
    38    19    25    1
    39    19    20    2
    40    20    21    1
    41    20    48    1
    42    21    22    1
    43    21    49    1
    44    21    50    1
    45    22    23    1
    46    22    51    1
    47    22    52    1
    48    23    24    1
    49    23    53    1
    50    23    54    1
    51    24    25    1
    52    24    55    1
    53    24    56    1
    54    25    57    1
    55    25    58    1
    56    26    27   ar
    57    26    59    1
    58    27    60    1
    59    28    29    1
    60    28    61    1
    61    28    62    1
    62    29    30    1
    63    29    31    1
    64    29    32    1
    65    31    63    1
    66    31    64    1
    67    31    65    1
@<TRIPOS>SUBSTRUCTURE
     1 ZINC000464139057        1 TEMP              0 ****  ****    0 ROOT


##########                                Name:    ZINC000550217006
##########                DOCK_Rotatable_Bonds:                   7
##########                         Heavy_Atoms:                  27
##########                    Molecular_Weight:             367.404
##########                DOCK_Rotatable_Bonds:                   7
##########                       Formal_Charge:          0.00999951
##########                     HBond_Acceptors:                   7
##########                        HBond_Donors:                   3
##########                         Heavy_Atoms:                  27
##########                          Grid_Score:          -30.956985
##########                     Grid_vdw_energy:          -29.686686
##########                      Grid_es_energy:           -1.270301
##########           Internal_energy_repulsive:            7.930457

@<TRIPOS>MOLECULE
ZINC000550217006
 48 50 1 0 0
SMALL
USER_CHARGES


@<TRIPOS>ATOM
      1 C1         -9.0821   -0.9468   58.7080 C.3     1  ZINC000550217006   -0.1500
      2 C2        -10.2286   -1.6380   57.9671 C.3     1  ZINC000550217006    0.0500
      3 O3        -11.4257   -0.8731   58.1223 O.3     1  ZINC000550217006   -0.3100
      4 C4        -12.5639   -1.3945   57.5934 C.ar    1  ZINC000550217006    0.1400
      5 C5        -13.3138   -2.3065   58.3214 C.ar    1  ZINC000550217006   -0.2100
      6 C6        -14.4710   -2.8347   57.7817 C.ar    1  ZINC000550217006   -0.0800
      7 C7        -14.8810   -2.4554   56.5172 C.ar    1  ZINC000550217006   -0.1600
      8 C8        -14.1349   -1.5467   55.7892 C.ar    1  ZINC000550217006   -0.0700
      9 C9        -12.9807   -1.0111   56.3267 C.ar    1  ZINC000550217006   -0.1200
     10 C10       -12.1683   -0.0206   55.5332 C.3     1  ZINC000550217006   -0.0800
     11 C11       -11.7677   -0.6452   54.1951 C.3     1  ZINC000550217006    0.1300
     12 N12       -10.6010    0.0589   53.6573 N.am    1  ZINC000550217006   -0.7200
     13 C13        -9.3905   -0.5334   53.6720 C.2     1  ZINC000550217006    0.5600
     14 O14        -9.2665   -1.6511   54.1328 O.2     1  ZINC000550217006   -0.5300
     15 C15        -8.2117    0.1775   53.1269 C.ar    1  ZINC000550217006   -0.0800
     16 C16        -7.1783   -0.5418   52.5219 C.ar    1  ZINC000550217006   -0.1000
     17 C17        -6.0860    0.1214   52.0186 C.ar    1  ZINC000550217006   -0.0500
     18 C18        -5.9934    1.5205   52.1035 C.ar    1  ZINC000550217006   -0.1300
     19 C19        -7.0245    2.2423   52.7038 C.ar    1  ZINC000550217006    0.1800
     20 C20        -8.1332    1.5620   53.2107 C.ar    1  ZINC000550217006   -0.0900
     21 N21        -7.0221    3.6218   52.8205 N.am    1  ZINC000550217006   -0.6600
     22 C22        -5.9704    4.3708   53.1376 C.2     1  ZINC000550217006    0.5100
     23 O23        -6.1147    5.5696   53.2517 O.2     1  ZINC000550217006   -0.5100
     24 C24        -4.6070    3.7753   53.3595 C.3     1  ZINC000550217006    0.0900
     25 N25        -4.1446    3.1746   52.1083 N.am    1  ZINC000550217006   -0.7100
     26 C26        -4.7902    2.1546   51.5457 C.2     1  ZINC000550217006    0.5600
     27 O27        -4.3542    1.7176   50.4984 O.2     1  ZINC000550217006   -0.5200
     28 H28        -9.3287   -0.8686   59.7669 H       1  ZINC000550217006    0.0700
     29 H29        -8.1691   -1.5301   58.5896 H       1  ZINC000550217006    0.0800
     30 H30        -8.9320    0.0508   58.2953 H       1  ZINC000550217006    0.0700
     31 H31        -9.9822   -1.7161   56.9082 H       1  ZINC000550217006    0.0600
     32 H32       -10.3788   -2.6356   58.3798 H       1  ZINC000550217006    0.0600
     33 H33       -12.9935   -2.6036   59.3091 H       1  ZINC000550217006    0.1300
     34 H34       -15.0552   -3.5447   58.3481 H       1  ZINC000550217006    0.1300
     35 H35       -15.7856   -2.8697   56.0969 H       1  ZINC000550217006    0.1300
     36 H36       -14.4571   -1.2522   54.8014 H       1  ZINC000550217006    0.1300
     37 H37       -12.7628    0.8750   55.3526 H       1  ZINC000550217006    0.0800
     38 H38       -11.2716    0.2453   56.0930 H       1  ZINC000550217006    0.0800
     39 H39       -11.5208   -1.6963   54.3443 H       1  ZINC000550217006    0.0700
     40 H40       -12.5973   -0.5629   53.4929 H       1  ZINC000550217006    0.0700
     41 H41       -10.6997    0.9516   53.2906 H       1  ZINC000550217006    0.4000
     42 H42        -7.2381   -1.6178   52.4502 H       1  ZINC000550217006    0.1400
     43 H43        -5.2892   -0.4391   51.5526 H       1  ZINC000550217006    0.1500
     44 H44        -8.9330    2.1162   53.6793 H       1  ZINC000550217006    0.1500
     45 H45        -7.8601    4.0818   52.6563 H       1  ZINC000550217006    0.4200
     46 H46        -3.9128    4.5571   53.6678 H       1  ZINC000550217006    0.1300
     47 H47        -4.6645    3.0096   54.1330 H       1  ZINC000550217006    0.1000
     48 H48        -3.3498    3.5274   51.6785 H       1  ZINC000550217006    0.4200
@<TRIPOS>BOND
     1     1     2    1
     2     1    28    1
     3     1    29    1
     4     1    30    1
     5     2     3    1
     6     2    31    1
     7     2    32    1
     8     3     4    1
     9     4     9   ar
    10     4     5   ar
    11     5     6   ar
    12     5    33    1
    13     6     7   ar
    14     6    34    1
    15     7     8   ar
    16     7    35    1
    17     8     9   ar
    18     8    36    1
    19     9    10    1
    20    10    11    1
    21    10    37    1
    22    10    38    1
    23    11    12    1
    24    11    39    1
    25    11    40    1
    26    12    13   am
    27    12    41    1
    28    13    14    2
    29    13    15    1
    30    15    20   ar
    31    15    16   ar
    32    16    17   ar
    33    16    42    1
    34    17    18   ar
    35    17    43    1
    36    18    26    1
    37    18    19   ar
    38    19    20   ar
    39    19    21    1
    40    20    44    1
    41    21    22   am
    42    21    45    1
    43    22    23    2
    44    22    24    1
    45    24    25    1
    46    24    46    1
    47    24    47    1
    48    25    26   am
    49    25    48    1
    50    26    27    2
@<TRIPOS>SUBSTRUCTURE
     1 ZINC000550217006        1 TEMP              0 ****  ****    0 ROOT


##########                                Name:    ZINC000271662144
##########                DOCK_Rotatable_Bonds:                   8
##########                         Heavy_Atoms:                  26
##########                    Molecular_Weight:             390.402
##########                DOCK_Rotatable_Bonds:                   8
##########                       Formal_Charge:          0.00999944
##########                     HBond_Acceptors:                   9
##########                        HBond_Donors:                   3
##########                         Heavy_Atoms:                  26
##########                          Grid_Score:          -30.939011
##########                     Grid_vdw_energy:          -30.172443
##########                      Grid_es_energy:           -0.766567
##########           Internal_energy_repulsive:           10.196156

@<TRIPOS>MOLECULE
ZINC000271662144
 44 45 1 0 0
SMALL
USER_CHARGES


@<TRIPOS>ATOM
      1 C1         -9.3920   -3.3251   56.5009 C.3     1  ZINC000271662144   -0.1400
      2 C2        -10.4605   -2.2707   56.2057 C.3     1  ZINC000271662144    0.1200
      3 H3        -11.0616   -2.5909   55.3548 H       1  ZINC000271662144    0.0600
      4 N4         -9.8117   -0.9904   55.8929 N.3     1  ZINC000271662144   -0.6700
      5 C5        -10.0100   -0.6306   54.4824 C.3     1  ZINC000271662144    0.1300
      6 H6        -10.3391   -1.5085   53.9263 H       1  ZINC000271662144    0.1100
      7 C7        -11.0723    0.4656   54.3802 C.3     1  ZINC000271662144   -0.2000
      8 C8        -12.2901   -0.0728   53.6265 C.3     1  ZINC000271662144    0.4600
      9 F9        -13.0686    0.9975   53.1731 F       1  ZINC000271662144   -0.1800
     10 F10       -11.8629   -0.8346   52.5336 F       1  ZINC000271662144   -0.1800
     11 F11       -13.0524   -0.8736   54.4838 F       1  ZINC000271662144   -0.1700
     12 C12        -8.7121   -0.1278   53.9051 C.ar    1  ZINC000271662144   -0.0900
     13 C13        -8.1491    1.0402   54.3848 C.ar    1  ZINC000271662144   -0.0600
     14 C14        -6.9589    1.5023   53.8562 C.ar    1  ZINC000271662144   -0.1600
     15 C15        -6.3298    0.7947   52.8458 C.ar    1  ZINC000271662144    0.1000
     16 F16        -5.1659    1.2453   52.3286 F       1  ZINC000271662144   -0.1400
     17 C17        -6.8942   -0.3752   52.3664 C.ar    1  ZINC000271662144   -0.1500
     18 C18        -8.0822   -0.8379   52.9000 C.ar    1  ZINC000271662144   -0.0700
     19 C19       -11.3474   -2.1026   57.4125 C.ar    1  ZINC000271662144   -0.1100
     20 C20       -10.8377   -1.5525   58.5734 C.ar    1  ZINC000271662144   -0.0400
     21 C21       -11.6514   -1.3983   59.6805 C.ar    1  ZINC000271662144   -0.1400
     22 C22       -12.9745   -1.7941   59.6263 C.ar    1  ZINC000271662144   -0.0200
     23 C23       -13.4846   -2.3437   58.4647 C.ar    1  ZINC000271662144   -0.6800
     24 S24       -15.1713   -2.8487   58.3957 S.o2    1  ZINC000271662144    2.7000
     25 N25       -15.2434   -4.1841   57.4191 N.am    1  ZINC000271662144   -1.2500
     26 O26       -15.5122   -3.2888   59.7031 O.2     1  ZINC000271662144   -0.9600
     27 O27       -15.8718   -1.8161   57.7160 O.2     1  ZINC000271662144   -0.9600
     28 C28       -12.6724   -2.4938   57.3566 C.ar    1  ZINC000271662144   -0.0100
     29 H29        -8.7505   -3.4466   55.6281 H       1  ZINC000271662144    0.0600
     30 H30        -8.7907   -3.0049   57.3519 H       1  ZINC000271662144    0.0700
     31 H31        -9.8733   -4.2752   56.7331 H       1  ZINC000271662144    0.0600
     32 H32       -10.1436   -0.2583   56.5028 H       1  ZINC000271662144    0.3500
     33 H33       -11.3724    0.7754   55.3812 H       1  ZINC000271662144    0.1100
     34 H34       -10.6616    1.3206   53.8431 H       1  ZINC000271662144    0.1200
     35 H35        -8.6400    1.5919   55.1730 H       1  ZINC000271662144    0.1300
     36 H36        -6.5197    2.4151   54.2306 H       1  ZINC000271662144    0.1400
     37 H37        -6.4047   -0.9277   51.5781 H       1  ZINC000271662144    0.1400
     38 H38        -8.5224   -1.7506   52.5264 H       1  ZINC000271662144    0.1300
     39 H39        -9.8038   -1.2432   58.6159 H       1  ZINC000271662144    0.1400
     40 H40       -11.2529   -0.9690   60.5880 H       1  ZINC000271662144    0.1400
     41 H41       -13.6099   -1.6743   60.4914 H       1  ZINC000271662144    0.1400
     42 H42       -14.9539   -4.1254   56.4951 H       1  ZINC000271662144    0.4200
     43 H43       -15.5750   -5.0250   57.7709 H       1  ZINC000271662144    0.4200
     44 H44       -13.0707   -2.9231   56.4492 H       1  ZINC000271662144    0.1400
@<TRIPOS>BOND
     1     1     2    1
     2     1    29    1
     3     1    30    1
     4     1    31    1
     5     2     3    1
     6     2     4    1
     7     2    19    1
     8     4     5    1
     9     4    32    1
    10     5     6    1
    11     5     7    1
    12     5    12    1
    13     7     8    1
    14     7    33    1
    15     7    34    1
    16     8     9    1
    17     8    10    1
    18     8    11    1
    19    12    18   ar
    20    12    13   ar
    21    13    14   ar
    22    13    35    1
    23    14    15   ar
    24    14    36    1
    25    15    16    1
    26    15    17   ar
    27    17    18   ar
    28    17    37    1
    29    18    38    1
    30    19    28   ar
    31    19    20   ar
    32    20    21   ar
    33    20    39    1
    34    21    22   ar
    35    21    40    1
    36    22    23   ar
    37    22    41    1
    38    23    24    1
    39    23    28   ar
    40    24    25   am
    41    24    26    2
    42    24    27    2
    43    25    42    1
    44    25    43    1
    45    28    44    1
@<TRIPOS>SUBSTRUCTURE
     1 ZINC000271662144        1 TEMP              0 ****  ****    0 ROOT


##########                                Name:    ZINC000533131987
##########                DOCK_Rotatable_Bonds:                  11
##########                         Heavy_Atoms:                  30
##########                    Molecular_Weight:             419.403
##########                DOCK_Rotatable_Bonds:                  11
##########                       Formal_Charge:                0.01
##########                     HBond_Acceptors:                   9
##########                        HBond_Donors:                   3
##########                         Heavy_Atoms:                  30
##########                          Grid_Score:          -30.931913
##########                     Grid_vdw_energy:          -29.457718
##########                      Grid_es_energy:           -1.474196
##########           Internal_energy_repulsive:           27.892395

@<TRIPOS>MOLECULE
ZINC000533131987
 50 52 1 0 0
SMALL
USER_CHARGES


@<TRIPOS>ATOM
      1 O1         -5.7590    1.1830   58.4603 O.2     1  ZINC000533131987   -0.5700
      2 C2         -6.8224    1.7502   58.6216 C.2     1  ZINC000533131987    0.7100
      3 N3         -7.6153    1.4135   59.6582 N.am    1  ZINC000533131987   -0.7400
      4 C4         -7.1987    0.3602   60.5871 C.3     1  ZINC000533131987    0.1400
      5 C5         -7.6577    0.7173   62.0022 C.3     1  ZINC000533131987   -0.0900
      6 H6         -7.1914    0.0395   62.7173 H       1  ZINC000533131987    0.0900
      7 C7         -7.2497    2.1565   62.3228 C.3     1  ZINC000533131987    0.0800
      8 O8         -6.5379    2.1852   63.5616 O.3     1  ZINC000533131987   -0.5600
      9 C9         -9.1795    0.5863   62.0931 C.3     1  ZINC000533131987   -0.0900
     10 C10        -9.6410    1.0281   63.4580 C.ar    1  ZINC000533131987    0.0000
     11 C11        -8.9077    0.6880   64.5791 C.ar    1  ZINC000533131987   -0.1100
     12 C12        -9.3312    1.0932   65.8312 C.ar    1  ZINC000533131987   -0.0800
     13 C13       -10.4875    1.8389   65.9618 C.ar    1  ZINC000533131987   -0.1300
     14 C14       -11.2207    2.1798   64.8404 C.ar    1  ZINC000533131987   -0.0700
     15 C15       -10.7951    1.7783   63.5882 C.ar    1  ZINC000533131987   -0.1700
     16 C16       -11.5941    2.1500   62.3657 C.3     1  ZINC000533131987    0.5100
     17 F17       -11.8691    0.9986   61.6204 F       1  ZINC000533131987   -0.1800
     18 F18       -12.7957    2.7493   62.7584 F       1  ZINC000533131987   -0.1700
     19 F19       -10.8592    3.0475   61.5835 F       1  ZINC000533131987   -0.1800
     20 N20        -7.2056    2.7192   57.7670 N.am    1  ZINC000533131987   -0.6900
     21 C21        -6.3821    3.0689   56.6905 C.ar    1  ZINC000533131987    0.1600
     22 C22        -5.4691    4.1078   56.8231 C.ar    1  ZINC000533131987   -0.1000
     23 C23        -4.6534    4.4571   55.7628 C.ar    1  ZINC000533131987   -0.1000
     24 C24        -4.7407    3.7762   54.5659 C.ar    1  ZINC000533131987   -0.1000
     25 C25        -5.6550    2.7309   54.4226 C.ar    1  ZINC000533131987    0.0000
     26 C26        -5.7503    1.9993   53.1413 C.2     1  ZINC000533131987    0.2300
     27 N27        -6.2359    0.7906   52.9835 N.2     1  ZINC000533131987   -0.4700
     28 C28        -6.1581    0.4632   51.6848 C.2     1  ZINC000533131987   -0.0400
     29 C29        -5.6086    1.5024   51.0300 C.2     1  ZINC000533131987   -0.0700
     30 O30        -5.3593    2.4631   51.9417 O.3     1  ZINC000533131987   -0.2000
     31 C31        -6.4736    2.3749   55.4939 C.ar    1  ZINC000533131987   -0.1000
     32 H32        -8.4618    1.8687   59.7890 H       1  ZINC000533131987    0.4000
     33 H33        -7.6477   -0.5868   60.2876 H       1  ZINC000533131987    0.0700
     34 H34        -6.1126    0.2689   60.5696 H       1  ZINC000533131987    0.0800
     35 H35        -6.6099    2.5385   61.5272 H       1  ZINC000533131987    0.0400
     36 H36        -8.1415    2.7781   62.4018 H       1  ZINC000533131987    0.0600
     37 H37        -7.0848    1.9867   64.3342 H       1  ZINC000533131987    0.3800
     38 H38        -9.6442    1.2131   61.3319 H       1  ZINC000533131987    0.0800
     39 H39        -9.4650   -0.4532   61.9318 H       1  ZINC000533131987    0.0900
     40 H40        -8.0041    0.1053   64.4769 H       1  ZINC000533131987    0.1300
     41 H41        -8.7585    0.8268   66.7073 H       1  ZINC000533131987    0.1300
     42 H42       -10.8188    2.1548   66.9401 H       1  ZINC000533131987    0.1300
     43 H43       -12.1244    2.7622   64.9425 H       1  ZINC000533131987    0.1300
     44 H44        -8.0521    3.1745   57.8979 H       1  ZINC000533131987    0.4100
     45 H45        -5.3965    4.6445   57.7575 H       1  ZINC000533131987    0.1500
     46 H46        -3.9458    5.2656   55.8717 H       1  ZINC000533131987    0.1400
     47 H47        -4.1021    4.0523   53.7398 H       1  ZINC000533131987    0.1300
     48 H48        -6.4792   -0.4687   51.2434 H       1  ZINC000533131987    0.1900
     49 H49        -5.4084    1.5578   49.9703 H       1  ZINC000533131987    0.2200
     50 H50        -7.1826    1.5671   55.3889 H       1  ZINC000533131987    0.1400
@<TRIPOS>BOND
     1     1     2    2
     2     2     3   am
     3     2    20   am
     4     3     4    1
     5     3    32    1
     6     4     5    1
     7     4    33    1
     8     4    34    1
     9     5     6    1
    10     5     7    1
    11     5     9    1
    12     7     8    1
    13     7    35    1
    14     7    36    1
    15     8    37    1
    16     9    10    1
    17     9    38    1
    18     9    39    1
    19    10    15   ar
    20    10    11   ar
    21    11    12   ar
    22    11    40    1
    23    12    13   ar
    24    12    41    1
    25    13    14   ar
    26    13    42    1
    27    14    15   ar
    28    14    43    1
    29    15    16    1
    30    16    17    1
    31    16    18    1
    32    16    19    1
    33    20    21    1
    34    20    44    1
    35    21    31   ar
    36    21    22   ar
    37    22    23   ar
    38    22    45    1
    39    23    24   ar
    40    23    46    1
    41    24    25   ar
    42    24    47    1
    43    25    26    1
    44    25    31   ar
    45    26    30    1
    46    26    27    2
    47    27    28    1
    48    28    29    2
    49    28    48    1
    50    29    30    1
    51    29    49    1
    52    31    50    1
@<TRIPOS>SUBSTRUCTURE
     1 ZINC000533131987        1 TEMP              0 ****  ****    0 ROOT


##########                                Name:    ZINC001039825450
##########                DOCK_Rotatable_Bonds:                   8
##########                         Heavy_Atoms:                  24
##########                    Molecular_Weight:             337.339
##########                DOCK_Rotatable_Bonds:                   8
##########                       Formal_Charge:           0.0100001
##########                     HBond_Acceptors:                  11
##########                        HBond_Donors:                   4
##########                         Heavy_Atoms:                  24
##########                          Grid_Score:          -30.926399
##########                     Grid_vdw_energy:          -31.128599
##########                      Grid_es_energy:            0.202200
##########           Internal_energy_repulsive:           10.058141

@<TRIPOS>MOLECULE
ZINC001039825450
 43 45 1 0 0
SMALL
USER_CHARGES


@<TRIPOS>ATOM
      1 O1         -7.8227   -1.4488   52.6820 O.2     1  ZINC001039825450   -0.5100
      2 C2         -8.3085   -0.3951   53.0353 C.2     1  ZINC001039825450    0.5000
      3 C3         -9.6841   -0.3684   53.6503 C.3     1  ZINC001039825450    0.1300
      4 N4         -9.6876   -1.1735   54.8742 N.pl3   1  ZINC001039825450   -0.1500
      5 N5         -9.1977   -2.3587   54.9704 N.2     1  ZINC001039825450   -0.2800
      6 C6         -9.3679   -2.7865   56.2010 C.2     1  ZINC001039825450   -0.0200
      7 C7        -10.0166   -1.7523   56.8794 C.2     1  ZINC001039825450   -0.0200
      8 N8        -10.1759   -0.7893   56.0002 N.2     1  ZINC001039825450   -0.2800
      9 N9         -7.6161    0.7511   52.8830 N.am    1  ZINC001039825450   -0.7300
     10 C10        -6.2789    0.7250   52.2851 C.3     1  ZINC001039825450    0.1000
     11 C11        -5.6860    2.1354   52.3002 C.3     1  ZINC001039825450    0.1100
     12 O12        -6.4369    3.0065   51.4520 O.3     1  ZINC001039825450   -0.5400
     13 C13        -5.6257    2.6901   53.7479 C.3     1  ZINC001039825450   -0.1600
     14 C14        -4.4569    3.7017   53.6449 C.3     1  ZINC001039825450    0.1000
     15 N15        -3.4870    3.0662   52.7344 N.am    1  ZINC001039825450   -0.6100
     16 C16        -2.1643    3.3209   52.6939 C.2     1  ZINC001039825450    0.5200
     17 O17        -1.4583    2.7369   51.8992 O.2     1  ZINC001039825450   -0.5100
     18 C18        -1.5623    4.3313   53.6361 C.3     1  ZINC001039825450    0.1100
     19 H19        -2.1687    5.2366   53.6631 H       1  ZINC001039825450    0.1200
     20 C20        -0.1150    4.6618   53.2222 C.3     1  ZINC001039825450    0.1100
     21 N21         0.6874    4.2420   54.3809 N.am    1  ZINC001039825450   -0.7400
     22 C22        -0.1258    3.7478   55.3235 C.2     1  ZINC001039825450    0.7100
     23 O23         0.2757    3.3261   56.3909 O.2     1  ZINC001039825450   -0.5800
     24 N24        -1.4249    3.7617   54.9848 N.am    1  ZINC001039825450   -0.7200
     25 C25        -4.2018    2.1083   51.8782 C.3     1  ZINC001039825450    0.1200
     26 H26        -9.9545    0.6598   53.8911 H       1  ZINC001039825450    0.1400
     27 H27       -10.4060   -0.7780   52.9439 H       1  ZINC001039825450    0.1400
     28 H28        -9.0679   -3.7422   56.6049 H       1  ZINC001039825450    0.2000
     29 H29       -10.3209   -1.7442   57.9157 H       1  ZINC001039825450    0.2000
     30 H30        -8.0032    1.5932   53.1692 H       1  ZINC001039825450    0.4000
     31 H31        -5.6377    0.0552   52.8580 H       1  ZINC001039825450    0.0900
     32 H32        -6.3476    0.3708   51.2566 H       1  ZINC001039825450    0.0900
     33 H33        -7.3022    2.6579   51.1974 H       1  ZINC001039825450    0.3800
     34 H34        -6.5556    3.1932   54.0126 H       1  ZINC001039825450    0.0900
     35 H35        -5.3952    1.8981   54.4604 H       1  ZINC001039825450    0.0900
     36 H36        -4.8076    4.6453   53.2271 H       1  ZINC001039825450    0.0800
     37 H37        -4.0076    3.8632   54.6248 H       1  ZINC001039825450    0.0800
     38 H38         0.1681    4.0951   52.3352 H       1  ZINC001039825450    0.0900
     39 H39        -0.0023    5.7316   53.0461 H       1  ZINC001039825450    0.1000
     40 H40         1.6522    4.3120   54.4512 H       1  ZINC001039825450    0.4400
     41 H41        -2.1541    3.4447   55.5406 H       1  ZINC001039825450    0.4400
     42 H42        -3.7941    1.1076   52.0210 H       1  ZINC001039825450    0.0900
     43 H43        -4.1081    2.4034   50.8331 H       1  ZINC001039825450    0.0900
@<TRIPOS>BOND
     1     1     2    2
     2     2     3    1
     3     2     9   am
     4     3     4    1
     5     3    26    1
     6     3    27    1
     7     4     8    1
     8     4     5    1
     9     5     6    2
    10     6     7    1
    11     6    28    1
    12     7     8    2
    13     7    29    1
    14     9    10    1
    15     9    30    1
    16    10    11    1
    17    10    31    1
    18    10    32    1
    19    11    25    1
    20    11    12    1
    21    11    13    1
    22    12    33    1
    23    13    14    1
    24    13    34    1
    25    13    35    1
    26    14    15    1
    27    14    36    1
    28    14    37    1
    29    15    16   am
    30    15    25    1
    31    16    17    2
    32    16    18    1
    33    18    19    1
    34    18    24    1
    35    18    20    1
    36    20    21    1
    37    20    38    1
    38    20    39    1
    39    21    22   am
    40    21    40    1
    41    22    23    2
    42    22    24   am
    43    24    41    1
    44    25    42    1
    45    25    43    1
@<TRIPOS>SUBSTRUCTURE
     1 ZINC001039825450        1 TEMP              0 ****  ****    0 ROOT


##########                                Name:    ZINC000151820600
##########                DOCK_Rotatable_Bonds:                  10
##########                         Heavy_Atoms:                  25
##########                    Molecular_Weight:             388.915
##########                DOCK_Rotatable_Bonds:                  10
##########                       Formal_Charge:           0.0499998
##########                     HBond_Acceptors:                   8
##########                        HBond_Donors:                   2
##########                         Heavy_Atoms:                  25
##########                          Grid_Score:          -30.885408
##########                     Grid_vdw_energy:          -30.651941
##########                      Grid_es_energy:           -0.233466
##########           Internal_energy_repulsive:           12.770435

@<TRIPOS>MOLECULE
ZINC000151820600
 50 50 1 0 0
SMALL
USER_CHARGES


@<TRIPOS>ATOM
      1 C1        -15.9547   -2.5904   58.1597 C.3     1  ZINC000151820600   -0.4900
      2 S2        -14.4427   -2.3315   59.1278 S.o     1  ZINC000151820600    1.2500
      3 O3        -14.3189   -0.9538   59.4534 O.2     1  ZINC000151820600   -0.8500
      4 C4        -13.1298   -2.7988   57.9667 C.3     1  ZINC000151820600   -0.4500
      5 C5        -11.7677   -2.6330   58.6436 C.3     1  ZINC000151820600   -0.1100
      6 C6        -10.6582   -2.9810   57.6490 C.3     1  ZINC000151820600    0.1200
      7 N7        -10.8306   -2.1892   56.4285 N.am    1  ZINC000151820600   -0.7200
      8 C8         -9.8913   -2.2265   55.4627 C.2     1  ZINC000151820600    0.5200
      9 O9         -8.9025   -2.9144   55.6048 O.2     1  ZINC000151820600   -0.5200
     10 C10       -10.0695   -1.4135   54.2065 C.3     1  ZINC000151820600    0.1900
     11 H11        -9.9376   -2.0562   53.3360 H       1  ZINC000151820600    0.1300
     12 N12       -11.4150   -0.8343   54.1864 N.am    1  ZINC000151820600   -0.6900
     13 C13       -12.1179   -0.8025   53.0369 C.2     1  ZINC000151820600    0.6600
     14 O14       -11.6351   -1.2529   52.0168 O.2     1  ZINC000151820600   -0.5600
     15 O15       -13.3551   -0.2716   53.0188 O.3     1  ZINC000151820600   -0.3600
     16 C16       -13.5243    0.9815   52.3050 C.3     1  ZINC000151820600    0.1400
     17 C17       -13.6081    0.7052   50.8024 C.3     1  ZINC000151820600   -0.1800
     18 C18       -14.8122    1.6637   52.7706 C.3     1  ZINC000151820600   -0.1400
     19 C19       -12.3312    1.8958   52.5897 C.3     1  ZINC000151820600   -0.1800
     20 C20        -9.0461   -0.3078   54.1742 C.ar    1  ZINC000151820600   -0.1000
     21 C21        -9.0735    0.6873   55.1332 C.ar    1  ZINC000151820600   -0.0900
     22 C22        -8.1346    1.7018   55.1045 C.ar    1  ZINC000151820600   -0.1000
     23 C23        -7.1684    1.7217   54.1167 C.ar    1  ZINC000151820600   -0.1000
     24 C24        -7.1404    0.7258   53.1564 C.ar    1  ZINC000151820600   -0.0300
     25 Cl25       -5.9266    0.7499   51.9155 Cl      1  ZINC000151820600   -0.0600
     26 C26        -8.0766   -0.2920   53.1889 C.ar    1  ZINC000151820600   -0.0900
     27 H27       -15.9327   -1.9549   57.2745 H       1  ZINC000151820600    0.0800
     28 H28       -16.0169   -3.6353   57.8555 H       1  ZINC000151820600    0.1100
     29 H29       -16.8233   -2.3367   58.7675 H       1  ZINC000151820600    0.1100
     30 H30       -13.2625   -3.8385   57.6673 H       1  ZINC000151820600    0.1200
     31 H31       -13.1783   -2.1580   57.0863 H       1  ZINC000151820600    0.0900
     32 H32       -11.6491   -1.6010   58.9736 H       1  ZINC000151820600    0.0800
     33 H33       -11.7061   -3.2991   59.5042 H       1  ZINC000151820600    0.0900
     34 H34        -9.6885   -2.7570   58.0935 H       1  ZINC000151820600    0.0800
     35 H35       -10.7093   -4.0419   57.4041 H       1  ZINC000151820600    0.0700
     36 H36       -11.6208   -1.6382   56.3154 H       1  ZINC000151820600    0.4000
     37 H37       -11.8000   -0.4737   55.0004 H       1  ZINC000151820600    0.4200
     38 H38       -14.4582    0.0538   50.5996 H       1  ZINC000151820600    0.0600
     39 H39       -13.7352    1.6459   50.2666 H       1  ZINC000151820600    0.0700
     40 H40       -12.6906    0.2192   50.4707 H       1  ZINC000151820600    0.0900
     41 H41       -14.7526    1.8605   53.8411 H       1  ZINC000151820600    0.0700
     42 H42       -14.9393    2.6043   52.2348 H       1  ZINC000151820600    0.0800
     43 H43       -15.6623    1.0123   52.5679 H       1  ZINC000151820600    0.0700
     44 H44       -11.4136    1.4098   52.2579 H       1  ZINC000151820600    0.0900
     45 H45       -12.4583    2.8364   52.0539 H       1  ZINC000151820600    0.0700
     46 H46       -12.2715    2.0926   53.6601 H       1  ZINC000151820600    0.0600
     47 H47        -9.8289    0.6725   55.9049 H       1  ZINC000151820600    0.1300
     48 H48        -8.1564    2.4790   55.8541 H       1  ZINC000151820600    0.1400
     49 H49        -6.4355    2.5147   54.0940 H       1  ZINC000151820600    0.1400
     50 H50        -8.0553   -1.0696   52.4398 H       1  ZINC000151820600    0.1400
@<TRIPOS>BOND
     1     1     2    1
     2     1    27    1
     3     1    28    1
     4     1    29    1
     5     2     3    2
     6     2     4    1
     7     4     5    1
     8     4    30    1
     9     4    31    1
    10     5     6    1
    11     5    32    1
    12     5    33    1
    13     6     7    1
    14     6    34    1
    15     6    35    1
    16     7     8   am
    17     7    36    1
    18     8     9    2
    19     8    10    1
    20    10    11    1
    21    10    12    1
    22    10    20    1
    23    12    13   am
    24    12    37    1
    25    13    14    2
    26    13    15    1
    27    15    16    1
    28    16    17    1
    29    16    18    1
    30    16    19    1
    31    17    38    1
    32    17    39    1
    33    17    40    1
    34    18    41    1
    35    18    42    1
    36    18    43    1
    37    19    44    1
    38    19    45    1
    39    19    46    1
    40    20    26   ar
    41    20    21   ar
    42    21    22   ar
    43    21    47    1
    44    22    23   ar
    45    22    48    1
    46    23    24   ar
    47    23    49    1
    48    24    25    1
    49    24    26   ar
    50    26    50    1
@<TRIPOS>SUBSTRUCTURE
     1 ZINC000151820600        1 TEMP              0 ****  ****    0 ROOT


##########                                Name:    ZINC000033150761
##########                DOCK_Rotatable_Bonds:                   7
##########                         Heavy_Atoms:                  29
##########                    Molecular_Weight:             413.407
##########                DOCK_Rotatable_Bonds:                   7
##########                       Formal_Charge:          0.00999993
##########                     HBond_Acceptors:                  10
##########                        HBond_Donors:                   1
##########                         Heavy_Atoms:                  29
##########                          Grid_Score:          -30.880159
##########                     Grid_vdw_energy:          -31.004795
##########                      Grid_es_energy:            0.124636
##########           Internal_energy_repulsive:            5.697512

@<TRIPOS>MOLECULE
ZINC000033150761
 42 45 1 0 0
SMALL
USER_CHARGES


@<TRIPOS>ATOM
      1 O1         -8.4413    2.0873   55.0497 O.2     1  ZINC000033150761   -0.5000
      2 C2         -8.5757    1.1227   54.3269 C.2     1  ZINC000033150761    0.5200
      3 C3         -9.6145    0.0793   54.6483 C.3     1  ZINC000033150761   -0.1300
      4 C4         -9.6986   -0.1065   56.1647 C.3     1  ZINC000033150761   -0.0100
      5 C5        -10.7773   -1.1077   56.4890 C.2     1  ZINC000033150761    0.1800
      6 N6        -12.0534   -0.8548   56.6402 N.2     1  ZINC000033150761   -0.4400
      7 C7        -12.6290   -2.0459   56.9196 C.2     1  ZINC000033150761    0.2200
      8 C8        -14.0712   -2.2894   57.1757 C.ar    1  ZINC000033150761    0.1900
      9 C9        -14.9837   -1.2484   57.0284 C.ar    1  ZINC000033150761   -0.1300
     10 C10       -16.3258   -1.4905   57.2707 C.ar    1  ZINC000033150761   -0.0700
     11 C11       -16.7094   -2.7674   57.6526 C.ar    1  ZINC000033150761   -0.1500
     12 C12       -15.7485   -3.7548   57.7796 C.ar    1  ZINC000033150761    0.1100
     13 N13       -14.4797   -3.4983   57.5376 N.ar    1  ZINC000033150761   -0.4500
     14 N14       -11.6784   -2.9431   56.9216 N.2     1  ZINC000033150761   -0.3600
     15 O15       -10.6124   -2.4217   56.6707 O.3     1  ZINC000033150761    0.0900
     16 N16        -7.8000    0.9868   53.2331 N.am    1  ZINC000033150761   -0.6200
     17 C17        -6.8423    1.9489   52.9368 C.2     1  ZINC000033150761    0.2700
     18 N18        -5.6152    1.7048   52.5962 N.2     1  ZINC000033150761   -0.5000
     19 C19        -4.8396    2.7511   52.3491 C.2     1  ZINC000033150761    0.1200
     20 C20        -3.4181    2.6076   51.9503 C.ar    1  ZINC000033150761    0.0000
     21 C21        -2.4167    3.2217   52.6999 C.ar    1  ZINC000033150761   -0.0800
     22 C22        -1.0949    3.0858   52.3262 C.ar    1  ZINC000033150761   -0.1200
     23 C23        -0.7619    2.3405   51.2080 C.ar    1  ZINC000033150761    0.0700
     24 F24         0.5332    2.2103   50.8463 F       1  ZINC000033150761   -0.1300
     25 C25        -1.7550    1.7262   50.4579 C.ar    1  ZINC000033150761    0.0700
     26 F26        -1.4252    0.9994   49.3679 F       1  ZINC000033150761   -0.1300
     27 C27        -3.0799    1.8532   50.8279 C.ar    1  ZINC000033150761   -0.1000
     28 C28        -5.4306    3.9516   52.4847 C.2     1  ZINC000033150761   -0.2800
     29 S29        -7.1077    3.6897   52.9581 S.3     1  ZINC000033150761    0.2200
     30 H30       -10.5836    0.4019   54.2674 H       1  ZINC000033150761    0.1200
     31 H31        -9.3369   -0.8657   54.1814 H       1  ZINC000033150761    0.1200
     32 H32        -8.7416   -0.4690   56.5399 H       1  ZINC000033150761    0.1300
     33 H33        -9.9353    0.8479   56.6350 H       1  ZINC000033150761    0.1200
     34 H34       -14.6498   -0.2658   56.7297 H       1  ZINC000033150761    0.1400
     35 H35       -17.0569   -0.7027   57.1650 H       1  ZINC000033150761    0.1500
     36 H36       -17.7481   -2.9888   57.8493 H       1  ZINC000033150761    0.1400
     37 H37       -16.0435   -4.7502   58.0768 H       1  ZINC000033150761    0.1700
     38 H38        -7.9103    0.2173   52.6530 H       1  ZINC000033150761    0.4300
     39 H39        -2.6747    3.8039   53.5721 H       1  ZINC000033150761    0.1400
     40 H40        -0.3189    3.5622   52.9070 H       1  ZINC000033150761    0.1500
     41 H41        -3.8529    1.3752   50.2443 H       1  ZINC000033150761    0.1600
     42 H42        -4.9597    4.9105   52.3263 H       1  ZINC000033150761    0.1800
@<TRIPOS>BOND
     1     1     2    2
     2     2     3    1
     3     2    16   am
     4     3     4    1
     5     3    30    1
     6     3    31    1
     7     4     5    1
     8     4    32    1
     9     4    33    1
    10     5    15    1
    11     5     6    2
    12     6     7    1
    13     7     8    1
    14     7    14    2
    15     8    13   ar
    16     8     9   ar
    17     9    10   ar
    18     9    34    1
    19    10    11   ar
    20    10    35    1
    21    11    12   ar
    22    11    36    1
    23    12    13   ar
    24    12    37    1
    25    14    15    1
    26    16    17    1
    27    16    38    1
    28    17    29    1
    29    17    18    2
    30    18    19    1
    31    19    20    1
    32    19    28    2
    33    20    27   ar
    34    20    21   ar
    35    21    22   ar
    36    21    39    1
    37    22    23   ar
    38    22    40    1
    39    23    24    1
    40    23    25   ar
    41    25    26    1
    42    25    27   ar
    43    27    41    1
    44    28    29    1
    45    28    42    1
@<TRIPOS>SUBSTRUCTURE
     1 ZINC000033150761        1 TEMP              0 ****  ****    0 ROOT


##########                                Name:    ZINC000179496896
##########                DOCK_Rotatable_Bonds:                   8
##########                         Heavy_Atoms:                  27
##########                    Molecular_Weight:             396.504
##########                DOCK_Rotatable_Bonds:                   8
##########                       Formal_Charge:          0.00999944
##########                     HBond_Acceptors:                   8
##########                        HBond_Donors:                   1
##########                         Heavy_Atoms:                  27
##########                          Grid_Score:          -30.876898
##########                     Grid_vdw_energy:          -30.499264
##########                      Grid_es_energy:           -0.377634
##########           Internal_energy_repulsive:           28.009159

@<TRIPOS>MOLECULE
ZINC000179496896
 53 55 1 0 0
SMALL
USER_CHARGES


@<TRIPOS>ATOM
      1 C1         -5.1860    3.2413   54.2202 C.3     1  ZINC000179496896   -0.1500
      2 C2         -4.7738    3.7101   52.8234 C.3     1  ZINC000179496896   -0.1100
      3 C3         -3.4183    3.1005   52.4602 C.3     1  ZINC000179496896   -0.1400
      4 C4         -5.8238    3.2624   51.8046 C.3     1  ZINC000179496896    0.1200
      5 N5         -6.3853    1.9735   52.2164 N.pl3   1  ZINC000179496896   -0.3300
      6 N6         -5.7587    0.7291   52.0850 N.2     1  ZINC000179496896   -0.2700
      7 C7         -6.5503   -0.1944   52.5563 C.2     1  ZINC000179496896    0.0800
      8 C8         -7.7305    0.4333   53.0138 C.2     1  ZINC000179496896   -0.2500
      9 C9         -8.8960   -0.2326   53.6236 C.2     1  ZINC000179496896    0.5900
     10 O10        -9.4644   -1.1285   53.0294 O.2     1  ZINC000179496896   -0.5300
     11 N11        -9.3315    0.1515   54.8400 N.am    1  ZINC000179496896   -0.7100
     12 C12       -10.4906   -0.5090   55.4452 C.3     1  ZINC000179496896    0.1300
     13 C13       -10.1317   -0.9760   56.8573 C.3     1  ZINC000179496896    0.0700
     14 H14        -9.4975   -1.8605   56.7972 H       1  ZINC000179496896    0.0900
     15 C15        -9.3826    0.1399   57.5885 C.3     1  ZINC000179496896   -0.1900
     16 N16       -11.3608   -1.3037   57.5920 N.3     1  ZINC000179496896   -0.5300
     17 C17       -11.0592   -2.0782   58.8043 C.3     1  ZINC000179496896    0.0600
     18 C18       -12.2800   -2.0532   59.7321 C.3     1  ZINC000179496896   -0.0400
     19 C19       -13.5016   -2.4069   58.9104 C.2     1  ZINC000179496896   -0.1700
     20 C20       -13.5323   -2.3943   57.5630 C.2     1  ZINC000179496896   -0.1100
     21 C21       -14.7636   -2.7579   57.0297 C.2     1  ZINC000179496896   -0.1200
     22 C22       -15.7093   -3.0569   57.9159 C.2     1  ZINC000179496896   -0.2200
     23 S23       -15.0671   -2.8883   59.5436 S.3     1  ZINC000179496896    0.1000
     24 C24       -12.3163   -2.0122   56.7300 C.3     1  ZINC000179496896    0.1200
     25 C25        -7.5854    1.7876   52.7889 C.2     1  ZINC000179496896    0.0700
     26 C26        -8.5931    2.8591   53.1164 C.3     1  ZINC000179496896    0.3400
     27 F27        -9.8164    2.5493   52.5125 F       1  ZINC000179496896   -0.1500
     28 F28        -8.7628    2.9316   54.5032 F       1  ZINC000179496896   -0.2000
     29 H29        -4.4379    3.5602   54.9460 H       1  ZINC000179496896    0.0600
     30 H30        -6.1516    3.6756   54.4789 H       1  ZINC000179496896    0.0600
     31 H31        -5.2620    2.1540   54.2308 H       1  ZINC000179496896    0.0600
     32 H32        -4.6977    4.7974   52.8128 H       1  ZINC000179496896    0.0800
     33 H33        -3.4944    2.0133   52.4707 H       1  ZINC000179496896    0.0600
     34 H34        -3.1246    3.4346   51.4650 H       1  ZINC000179496896    0.0600
     35 H35        -2.6702    3.4195   53.1859 H       1  ZINC000179496896    0.0700
     36 H36        -6.6196    4.0054   51.7526 H       1  ZINC000179496896    0.1000
     37 H37        -5.3582    3.1594   50.8245 H       1  ZINC000179496896    0.1000
     38 H38        -6.3405   -1.2532   52.5905 H       1  ZINC000179496896    0.2000
     39 H39        -8.8774    0.8653   55.3145 H       1  ZINC000179496896    0.4100
     40 H40       -11.3234    0.1924   55.4952 H       1  ZINC000179496896    0.0700
     41 H41       -10.7759   -1.3692   54.8396 H       1  ZINC000179496896    0.0700
     42 H42        -9.1269   -0.1927   58.5944 H       1  ZINC000179496896    0.0600
     43 H43        -8.4706    0.3831   57.0433 H       1  ZINC000179496896    0.0700
     44 H44       -10.0168    1.0244   57.6485 H       1  ZINC000179496896    0.0600
     45 H45       -10.8301   -3.1082   58.5311 H       1  ZINC000179496896    0.0400
     46 H46       -10.2038   -1.6366   59.3155 H       1  ZINC000179496896    0.0900
     47 H47       -12.1500   -2.7828   60.5313 H       1  ZINC000179496896    0.0800
     48 H48       -12.3985   -1.0569   60.1578 H       1  ZINC000179496896    0.0900
     49 H49       -14.9409   -2.7948   55.9650 H       1  ZINC000179496896    0.1400
     50 H50       -16.7177   -3.3576   57.6727 H       1  ZINC000179496896    0.1600
     51 H51       -12.6234   -1.3610   55.9116 H       1  ZINC000179496896    0.0900
     52 H52       -11.8500   -2.9123   56.3294 H       1  ZINC000179496896    0.0500
     53 H53        -8.2367    3.8194   52.7435 H       1  ZINC000179496896    0.1300
@<TRIPOS>BOND
     1     1     2    1
     2     1    29    1
     3     1    30    1
     4     1    31    1
     5     2     3    1
     6     2     4    1
     7     2    32    1
     8     3    33    1
     9     3    34    1
    10     3    35    1
    11     4     5    1
    12     4    36    1
    13     4    37    1
    14     5    25    1
    15     5     6    1
    16     6     7    2
    17     7     8    1
    18     7    38    1
    19     8     9    1
    20     8    25    2
    21     9    10    2
    22     9    11   am
    23    11    12    1
    24    11    39    1
    25    12    13    1
    26    12    40    1
    27    12    41    1
    28    13    14    1
    29    13    15    1
    30    13    16    1
    31    15    42    1
    32    15    43    1
    33    15    44    1
    34    16    24    1
    35    16    17    1
    36    17    18    1
    37    17    45    1
    38    17    46    1
    39    18    19    1
    40    18    47    1
    41    18    48    1
    42    19    23    1
    43    19    20    2
    44    20    21    1
    45    20    24    1
    46    21    22    2
    47    21    49    1
    48    22    23    1
    49    22    50    1
    50    24    51    1
    51    24    52    1
    52    25    26    1
    53    26    27    1
    54    26    28    1
    55    26    53    1
@<TRIPOS>SUBSTRUCTURE
     1 ZINC000179496896        1 TEMP              0 ****  ****    0 ROOT


##########                                Name:    ZINC000746432885
##########                DOCK_Rotatable_Bonds:                  11
##########                         Heavy_Atoms:                  31
##########                    Molecular_Weight:              419.44
##########                DOCK_Rotatable_Bonds:                  11
##########                       Formal_Charge:           0.0199995
##########                     HBond_Acceptors:                   9
##########                        HBond_Donors:                   2
##########                         Heavy_Atoms:                  31
##########                          Grid_Score:          -30.856209
##########                     Grid_vdw_energy:          -29.241898
##########                      Grid_es_energy:           -1.614310
##########           Internal_energy_repulsive:           10.629435

@<TRIPOS>MOLECULE
ZINC000746432885
 52 54 1 0 0
SMALL
USER_CHARGES


@<TRIPOS>ATOM
      1 C1        -14.4074    0.7652   51.9690 C.3     1  ZINC000746432885    0.0300
      2 O2        -13.0225    0.9487   51.6679 O.3     1  ZINC000746432885   -0.3200
      3 C3        -12.1327    0.6505   52.6509 C.ar    1  ZINC000746432885    0.1300
      4 C4        -12.0949   -0.6274   53.1895 C.ar    1  ZINC000746432885   -0.2000
      5 C5        -11.1896   -0.9280   54.1887 C.ar    1  ZINC000746432885   -0.0800
      6 C6        -10.3218    0.0435   54.6522 C.ar    1  ZINC000746432885   -0.1400
      7 C7        -10.3576    1.3178   54.1170 C.ar    1  ZINC000746432885   -0.0600
      8 C8         -9.4101    2.3743   54.6242 C.3     1  ZINC000746432885    0.2300
      9 N9         -8.9862    2.0372   55.9855 N.am    1  ZINC000746432885   -0.6900
     10 C10        -9.6070    2.5970   57.0427 C.2     1  ZINC000746432885    0.5200
     11 O11       -10.5181    3.3793   56.8671 O.2     1  ZINC000746432885   -0.5100
     12 C12        -9.1737    2.2548   58.4301 C.2     1  ZINC000746432885    0.5100
     13 O13        -9.8574    2.5834   59.3780 O.2     1  ZINC000746432885   -0.5100
     14 N14        -8.0237    1.5810   58.6301 N.am    1  ZINC000746432885   -0.6100
     15 C15        -7.6169    1.2575   59.9352 C.2     1  ZINC000746432885    0.0000
     16 C16        -7.4234    2.1347   60.9543 C.2     1  ZINC000746432885    0.0400
     17 N17        -7.0375    1.4248   62.0386 N.pl3   1  ZINC000746432885   -0.3800
     18 C18        -6.7226    1.9739   63.3597 C.3     1  ZINC000746432885    0.2500
     19 C19        -6.9985    0.9603   64.3908 C.1     1  ZINC000746432885    0.1900
     20 N20        -7.2115    0.1780   65.1865 N.1     1  ZINC000746432885   -0.3900
     21 N21        -6.9919    0.0725   61.6770 N.2     1  ZINC000746432885   -0.2800
     22 C22        -7.3436   -0.0305   60.4211 C.2     1  ZINC000746432885    0.0700
     23 C23        -8.2031    2.4405   53.7242 C.ar    1  ZINC000746432885   -0.0500
     24 C24        -7.8539    3.6360   53.1238 C.ar    1  ZINC000746432885   -0.1500
     25 C25        -6.7469    3.7001   52.2979 C.ar    1  ZINC000746432885   -0.0700
     26 C26        -5.9869    2.5691   52.0705 C.ar    1  ZINC000746432885   -0.2000
     27 C27        -6.3353    1.3684   52.6716 C.ar    1  ZINC000746432885    0.1300
     28 O28        -5.5893    0.2543   52.4495 O.3     1  ZINC000746432885   -0.3200
     29 C29        -6.1997   -0.7957   51.6967 C.3     1  ZINC000746432885    0.0300
     30 C30        -7.4435    1.3079   53.5041 C.ar    1  ZINC000746432885   -0.1300
     31 C31       -11.2569    1.6218   53.1134 C.ar    1  ZINC000746432885   -0.1300
     32 H32       -14.6822    1.3964   52.8141 H       1  ZINC000746432885    0.0600
     33 H33       -15.0073    1.0389   51.1010 H       1  ZINC000746432885    0.1000
     34 H34       -14.5891   -0.2794   52.2215 H       1  ZINC000746432885    0.0600
     35 H35       -12.7729   -1.3865   52.8283 H       1  ZINC000746432885    0.1300
     36 H36       -11.1596   -1.9228   54.6083 H       1  ZINC000746432885    0.1300
     37 H37        -9.6153   -0.1932   55.4339 H       1  ZINC000746432885    0.1200
     38 H38        -9.9131    3.3413   54.6293 H       1  ZINC000746432885    0.1200
     39 H39        -8.2587    1.4110   56.1259 H       1  ZINC000746432885    0.4200
     40 H40        -7.4769    1.3194   57.8728 H       1  ZINC000746432885    0.4200
     41 H41        -7.5541    3.2058   60.9069 H       1  ZINC000746432885    0.1900
     42 H42        -5.6693    2.2517   63.3961 H       1  ZINC000746432885    0.1300
     43 H43        -7.3374    2.8552   63.5429 H       1  ZINC000746432885    0.1500
     44 H44        -7.4062   -0.9476   59.8542 H       1  ZINC000746432885    0.2100
     45 H45        -8.4470    4.5213   53.3001 H       1  ZINC000746432885    0.1200
     46 H46        -6.4763    4.6351   51.8298 H       1  ZINC000746432885    0.1300
     47 H47        -5.1225    2.6196   51.4250 H       1  ZINC000746432885    0.1300
     48 H48        -5.4981   -1.6234   51.5926 H       1  ZINC000746432885    0.1000
     49 H49        -7.0947   -1.1409   52.2142 H       1  ZINC000746432885    0.0600
     50 H50        -6.4719   -0.4237   50.7089 H       1  ZINC000746432885    0.0600
     51 H51        -7.7167    0.3743   53.9734 H       1  ZINC000746432885    0.1400
     52 H52       -11.2845    2.6174   52.6957 H       1  ZINC000746432885    0.1300
@<TRIPOS>BOND
     1     1     2    1
     2     1    32    1
     3     1    33    1
     4     1    34    1
     5     2     3    1
     6     3    31   ar
     7     3     4   ar
     8     4     5   ar
     9     4    35    1
    10     5     6   ar
    11     5    36    1
    12     6     7   ar
    13     6    37    1
    14     7     8    1
    15     7    31   ar
    16     8     9    1
    17     8    23    1
    18     8    38    1
    19     9    10   am
    20     9    39    1
    21    10    11    2
    22    10    12    1
    23    12    13    2
    24    12    14   am
    25    14    15    1
    26    14    40    1
    27    15    22    1
    28    15    16    2
    29    16    17    1
    30    16    41    1
    31    17    18    1
    32    17    21    1
    33    18    19    1
    34    18    42    1
    35    18    43    1
    36    19    20    3
    37    21    22    2
    38    22    44    1
    39    23    30   ar
    40    23    24   ar
    41    24    25   ar
    42    24    45    1
    43    25    26   ar
    44    25    46    1
    45    26    27   ar
    46    26    47    1
    47    27    28    1
    48    27    30   ar
    49    28    29    1
    50    29    48    1
    51    29    49    1
    52    29    50    1
    53    30    51    1
    54    31    52    1
@<TRIPOS>SUBSTRUCTURE
     1 ZINC000746432885        1 TEMP              0 ****  ****    0 ROOT


##########                                Name:    ZINC000451019064
##########                DOCK_Rotatable_Bonds:                   8
##########                         Heavy_Atoms:                  23
##########                    Molecular_Weight:             346.534
##########                DOCK_Rotatable_Bonds:                   8
##########                       Formal_Charge:          -0.0200008
##########                     HBond_Acceptors:                   6
##########                        HBond_Donors:                   1
##########                         Heavy_Atoms:                  23
##########                          Grid_Score:          -30.780666
##########                     Grid_vdw_energy:          -29.376133
##########                      Grid_es_energy:           -1.404534
##########           Internal_energy_repulsive:           13.955322

@<TRIPOS>MOLECULE
ZINC000451019064
 57 58 1 0 0
SMALL
USER_CHARGES


@<TRIPOS>ATOM
      1 C1        -15.5314   -3.3068   58.8734 C.3     1  ZINC000451019064   -0.1500
      2 C2        -14.6956   -2.0353   58.7125 C.3     1  ZINC000451019064    0.0900
      3 H3        -14.4528   -1.8902   57.6599 H       1  ZINC000451019064    0.0700
      4 C4        -13.4028   -2.1676   59.5220 C.3     1  ZINC000451019064    0.0200
      5 N5        -12.6404   -0.9144   59.4262 N.3     1  ZINC000451019064   -0.5400
      6 C6        -11.3630   -1.0191   60.1440 C.3     1  ZINC000451019064    0.0600
      7 C7        -10.2098   -0.9972   59.1387 C.3     1  ZINC000451019064   -0.1300
      8 C8         -8.9249   -0.5617   59.8461 C.3     1  ZINC000451019064    0.1100
      9 N9         -8.7299    0.8784   59.6615 N.am    1  ZINC000451019064   -1.1200
     10 S10        -7.3476    1.6043   60.2136 S.o2    1  ZINC000451019064    2.6100
     11 O11        -6.2975    0.8827   59.5845 O.2     1  ZINC000451019064   -0.9600
     12 O12        -7.5478    2.9861   59.9493 O.2     1  ZINC000451019064   -0.9500
     13 C13        -7.3541    1.2906   62.0002 C.3     1  ZINC000451019064   -0.6300
     14 C14        -8.6613    1.8077   62.6042 C.3     1  ZINC000451019064   -0.1100
     15 C15        -8.6686    1.5392   64.1104 C.3     1  ZINC000451019064   -0.0800
     16 C16        -8.6362    0.0300   64.3595 C.3     1  ZINC000451019064   -0.1200
     17 C17        -8.6435   -0.2385   65.8658 C.3     1  ZINC000451019064   -0.1200
     18 C18        -7.4146    0.4105   66.5055 C.3     1  ZINC000451019064   -0.1200
     19 C19        -7.4469    1.9197   66.2564 C.3     1  ZINC000451019064   -0.1200
     20 C20        -7.4396    2.1882   64.7501 C.3     1  ZINC000451019064   -0.1200
     21 C21       -13.4341    0.2178   59.9256 C.3     1  ZINC000451019064    0.0200
     22 C22       -14.7266    0.3262   59.1122 C.3     1  ZINC000451019064    0.0900
     23 H23       -14.4846    0.5407   58.0712 H       1  ZINC000451019064    0.0700
     24 C24       -15.5935    1.4529   59.6779 C.3     1  ZINC000451019064   -0.1500
     25 O25       -15.4394   -0.9112   59.1904 O.3     1  ZINC000451019064   -0.3800
     26 H26       -16.4524   -3.2114   58.2982 H       1  ZINC000451019064    0.0700
     27 H27       -14.9634   -4.1633   58.5105 H       1  ZINC000451019064    0.0700
     28 H28       -15.7739   -3.4514   59.9262 H       1  ZINC000451019064    0.0600
     29 H29       -13.6457   -2.3670   60.5657 H       1  ZINC000451019064    0.0400
     30 H30       -12.8062   -2.9881   59.1233 H       1  ZINC000451019064    0.0900
     31 H31       -11.2623   -0.1787   60.8308 H       1  ZINC000451019064    0.0400
     32 H32       -11.3375   -1.9527   60.7059 H       1  ZINC000451019064    0.0800
     33 H33       -10.0740   -1.9942   58.7198 H       1  ZINC000451019064    0.0800
     34 H34       -10.4395   -0.2946   58.3376 H       1  ZINC000451019064    0.0800
     35 H35        -9.0026   -0.7845   60.9103 H       1  ZINC000451019064    0.0800
     36 H36        -8.0769   -1.1004   59.4231 H       1  ZINC000451019064    0.0700
     37 H37        -9.4104    1.4069   59.2159 H       1  ZINC000451019064    0.4200
     38 H38        -7.2691    0.2190   62.1813 H       1  ZINC000451019064    0.1300
     39 H39        -6.5117    1.8051   62.4626 H       1  ZINC000451019064    0.1400
     40 H40        -8.7449    2.8797   62.4257 H       1  ZINC000451019064    0.0800
     41 H41        -9.5039    1.2952   62.1397 H       1  ZINC000451019064    0.0800
     42 H42        -9.5725    1.9607   64.5502 H       1  ZINC000451019064    0.0800
     43 H43        -9.5118   -0.4324   63.9038 H       1  ZINC000451019064    0.0600
     44 H44        -7.7324   -0.3916   63.9197 H       1  ZINC000451019064    0.0700
     45 H45        -9.5474    0.1830   66.3056 H       1  ZINC000451019064    0.0600
     46 H46        -8.6204   -1.3137   66.0434 H       1  ZINC000451019064    0.0600
     47 H47        -7.4197    0.2192   67.5785 H       1  ZINC000451019064    0.0600
     48 H48        -6.5107   -0.0110   66.0657 H       1  ZINC000451019064    0.0600
     49 H49        -8.3508    2.3413   66.6962 H       1  ZINC000451019064    0.0600
     50 H50        -6.5714    2.3821   66.7121 H       1  ZINC000451019064    0.0600
     51 H51        -6.5358    1.7667   64.3102 H       1  ZINC000451019064    0.0700
     52 H52        -7.4627    3.2634   64.5726 H       1  ZINC000451019064    0.0600
     53 H53       -13.6776    0.0565   60.9757 H       1  ZINC000451019064    0.0400
     54 H54       -12.8603    1.1387   59.8215 H       1  ZINC000451019064    0.0900
     55 H55       -15.0481    2.3948   59.6201 H       1  ZINC000451019064    0.0700
     56 H56       -16.5134    1.5295   59.0983 H       1  ZINC000451019064    0.0700
     57 H57       -15.8364    1.2369   60.7183 H       1  ZINC000451019064    0.0600
@<TRIPOS>BOND
     1     1     2    1
     2     1    26    1
     3     1    27    1
     4     1    28    1
     5     2     3    1
     6     2    25    1
     7     2     4    1
     8     4     5    1
     9     4    29    1
    10     4    30    1
    11     5     6    1
    12     5    21    1
    13     6     7    1
    14     6    31    1
    15     6    32    1
    16     7     8    1
    17     7    33    1
    18     7    34    1
    19     8     9    1
    20     8    35    1
    21     8    36    1
    22     9    10   am
    23     9    37    1
    24    10    11    2
    25    10    12    2
    26    10    13    1
    27    13    14    1
    28    13    38    1
    29    13    39    1
    30    14    15    1
    31    14    40    1
    32    14    41    1
    33    15    20    1
    34    15    16    1
    35    15    42    1
    36    16    17    1
    37    16    43    1
    38    16    44    1
    39    17    18    1
    40    17    45    1
    41    17    46    1
    42    18    19    1
    43    18    47    1
    44    18    48    1
    45    19    20    1
    46    19    49    1
    47    19    50    1
    48    20    51    1
    49    20    52    1
    50    21    22    1
    51    21    53    1
    52    21    54    1
    53    22    23    1
    54    22    24    1
    55    22    25    1
    56    24    55    1
    57    24    56    1
    58    24    57    1
@<TRIPOS>SUBSTRUCTURE
     1 ZINC000451019064        1 TEMP              0 ****  ****    0 ROOT


##########                                Name:    ZINC000269356812
##########                DOCK_Rotatable_Bonds:                  10
##########                         Heavy_Atoms:                  25
##########                    Molecular_Weight:             387.431
##########                DOCK_Rotatable_Bonds:                  10
##########                       Formal_Charge:          0.00999978
##########                     HBond_Acceptors:                  10
##########                        HBond_Donors:                   3
##########                         Heavy_Atoms:                  25
##########                          Grid_Score:          -30.770493
##########                     Grid_vdw_energy:          -25.955191
##########                      Grid_es_energy:           -4.815302
##########           Internal_energy_repulsive:            8.493474

@<TRIPOS>MOLECULE
ZINC000269356812
 40 41 1 0 0
SMALL
USER_CHARGES


@<TRIPOS>ATOM
      1 C1        -12.5052    2.3937   40.5552 C.3     1  ZINC000269356812   -0.1400
      2 C2        -12.9615    1.7773   41.8792 C.3     1  ZINC000269356812    0.2000
      3 O3        -12.0141    0.7929   42.2979 O.3     1  ZINC000269356812   -0.5400
      4 C4        -13.0632    2.8721   42.9432 C.3     1  ZINC000269356812    0.0900
      5 N5        -13.2382    2.2574   44.2613 N.am    1  ZINC000269356812   -0.6900
      6 C6        -14.4114    2.3825   44.9128 C.2     1  ZINC000269356812    0.5100
      7 O7        -15.3224    3.0057   44.4081 O.2     1  ZINC000269356812   -0.5100
      8 C8        -14.5905    1.7544   46.2557 C.2     1  ZINC000269356812    0.5100
      9 O9        -15.4790    0.9468   46.4344 O.2     1  ZINC000269356812   -0.4900
     10 N10       -13.7656    2.0841   47.2692 N.am    1  ZINC000269356812   -0.6400
     11 C11       -13.9333    1.4956   48.5275 C.ar    1  ZINC000269356812    0.0900
     12 C12       -12.9688    0.6245   49.0335 C.ar    1  ZINC000269356812   -0.0600
     13 C13       -13.1753    0.0664   50.2812 C.ar    1  ZINC000269356812   -0.1200
     14 C14       -14.3307    0.3896   50.9862 C.ar    1  ZINC000269356812    0.1000
     15 S15       -14.6057   -0.3145   52.5778 S.3     1  ZINC000269356812   -0.0600
     16 C16       -13.5154    0.6615   53.6497 C.3     1  ZINC000269356812    0.2900
     17 F17       -13.9875    0.6102   54.9657 F       1  ZINC000269356812   -0.1700
     18 F18       -12.2194    0.1368   53.5984 F       1  ZINC000269356812   -0.1700
     19 N19       -15.2258    1.2211   50.4745 N.ar    1  ZINC000269356812   -0.4600
     20 C20       -15.0584    1.7760   49.2895 C.ar    1  ZINC000269356812    0.1100
     21 C21       -14.3097    1.1303   41.6938 C.2     1  ZINC000269356812   -0.2300
     22 C22       -15.4651    1.7841   41.5629 C.2     1  ZINC000269356812   -0.1100
     23 C23       -16.5777    0.9763   41.4030 C.2     1  ZINC000269356812   -0.1400
     24 C24       -16.3260   -0.3337   41.4040 C.2     1  ZINC000269356812   -0.2000
     25 S25       -14.5999   -0.6024   41.6091 S.3     1  ZINC000269356812    0.1100
     26 H26       -12.4328    1.6137   39.7972 H       1  ZINC000269356812    0.0800
     27 H27       -13.2279    3.1446   40.2359 H       1  ZINC000269356812    0.0800
     28 H28       -11.5300    2.8617   40.6893 H       1  ZINC000269356812    0.0700
     29 H29       -12.2816    0.2993   43.0852 H       1  ZINC000269356812    0.3800
     30 H30       -12.1511    3.4689   42.9388 H       1  ZINC000269356812    0.0900
     31 H31       -13.9175    3.5128   42.7247 H       1  ZINC000269356812    0.0900
     32 H32       -12.5098    1.7603   44.6653 H       1  ZINC000269356812    0.4200
     33 H33       -13.0556    2.7296   47.1264 H       1  ZINC000269356812    0.4300
     34 H34       -12.0814    0.3914   48.4638 H       1  ZINC000269356812    0.1600
     35 H35       -12.4491   -0.6125   50.7034 H       1  ZINC000269356812    0.1500
     36 H36       -13.5021    1.6966   53.3085 H       1  ZINC000269356812    0.1500
     37 H37       -15.8099    2.4493   48.9044 H       1  ZINC000269356812    0.1700
     38 H38       -15.5277    2.8622   41.5808 H       1  ZINC000269356812    0.1500
     39 H39       -17.5741    1.3763   41.2866 H       1  ZINC000269356812    0.1400
     40 H40       -17.0681   -1.1103   41.2923 H       1  ZINC000269356812    0.1700
@<TRIPOS>BOND
     1     1     2    1
     2     1    26    1
     3     1    27    1
     4     1    28    1
     5     2     3    1
     6     2     4    1
     7     2    21    1
     8     3    29    1
     9     4     5    1
    10     4    30    1
    11     4    31    1
    12     5     6   am
    13     5    32    1
    14     6     7    2
    15     6     8    1
    16     8     9    2
    17     8    10   am
    18    10    11    1
    19    10    33    1
    20    11    20   ar
    21    11    12   ar
    22    12    13   ar
    23    12    34    1
    24    13    14   ar
    25    13    35    1
    26    14    15    1
    27    14    19   ar
    28    15    16    1
    29    16    17    1
    30    16    18    1
    31    16    36    1
    32    19    20   ar
    33    20    37    1
    34    21    25    1
    35    21    22    2
    36    22    23    1
    37    22    38    1
    38    23    24    2
    39    23    39    1
    40    24    25    1
    41    24    40    1
@<TRIPOS>SUBSTRUCTURE
     1 ZINC000269356812        1 TEMP              0 ****  ****    0 ROOT


##########                                Name:    ZINC000124554441
##########                DOCK_Rotatable_Bonds:                   9
##########                         Heavy_Atoms:                  26
##########                    Molecular_Weight:             375.898
##########                DOCK_Rotatable_Bonds:                   9
##########                       Formal_Charge:         -0.00999991
##########                     HBond_Acceptors:                   6
##########                        HBond_Donors:                   1
##########                         Heavy_Atoms:                  26
##########                          Grid_Score:          -30.762323
##########                     Grid_vdw_energy:          -28.811762
##########                      Grid_es_energy:           -1.950562
##########           Internal_energy_repulsive:           17.956600

@<TRIPOS>MOLECULE
ZINC000124554441
 52 53 1 0 0
SMALL
USER_CHARGES


@<TRIPOS>ATOM
      1 C1         -8.4018    6.0545   49.2680 C.3     1  ZINC000124554441   -0.1500
      2 C2         -9.2214    4.7640   49.2046 C.3     1  ZINC000124554441   -0.1300
      3 C3         -9.2224    4.0924   50.5793 C.3     1  ZINC000124554441   -0.1200
      4 C4         -7.7849    3.7640   50.9876 C.3     1  ZINC000124554441   -0.1200
      5 C5         -7.7828    3.1262   52.3783 C.3     1  ZINC000124554441   -0.1300
      6 C6         -6.3496    2.7603   52.7693 C.3     1  ZINC000124554441    0.1200
      7 N7         -6.3166    2.3502   54.1753 N.am    1  ZINC000124554441   -0.7300
      8 C8         -6.2375    3.2807   55.1471 C.2     1  ZINC000124554441    0.5200
      9 O9         -6.1923    4.4576   54.8575 O.2     1  ZINC000124554441   -0.5300
     10 C10        -6.2054    2.8589   56.5935 C.3     1  ZINC000124554441   -0.1200
     11 H11        -5.6115    1.9506   56.6945 H       1  ZINC000124554441    0.1000
     12 C12        -5.5818    3.9734   57.4368 C.3     1  ZINC000124554441   -0.1000
     13 C13        -5.5186    3.5329   58.9011 C.3     1  ZINC000124554441   -0.1400
     14 C14        -6.9389    3.2753   59.4144 C.3     1  ZINC000124554441    0.0900
     15 N15        -7.5966    2.3111   58.5219 N.am    1  ZINC000124554441   -0.6000
     16 C16        -8.1558    1.1888   59.0161 C.2     1  ZINC000124554441    0.5600
     17 O17        -8.6970    0.3990   58.2674 O.2     1  ZINC000124554441   -0.5200
     18 C18        -8.1110    0.9184   60.4697 C.ar    1  ZINC000124554441   -0.0900
     19 C19        -6.9595    0.3757   61.0434 C.ar    1  ZINC000124554441   -0.0900
     20 C20        -6.9166    0.1234   62.3966 C.ar    1  ZINC000124554441   -0.0600
     21 C21        -8.0253    0.4099   63.1961 C.ar    1  ZINC000124554441    0.0100
     22 C22        -7.9808    0.1476   64.6032 C.1     1  ZINC000124554441    0.2400
     23 N23        -7.9454   -0.0605   65.7195 N.1     1  ZINC000124554441   -0.3800
     24 C24        -9.1786    0.9533   62.6221 C.ar    1  ZINC000124554441    0.0000
     25 Cl25      -10.5573    1.3104   63.6148 Cl      1  ZINC000124554441   -0.0400
     26 C26        -9.2180    1.2111   61.2682 C.ar    1  ZINC000124554441   -0.0600
     27 C27        -7.6334    2.5930   57.0804 C.3     1  ZINC000124554441    0.1200
     28 H28        -8.8428    6.7293   50.0018 H       1  ZINC000124554441    0.0500
     29 H29        -7.3778    5.8205   49.5589 H       1  ZINC000124554441    0.0500
     30 H30        -8.4011    6.5329   48.2887 H       1  ZINC000124554441    0.0500
     31 H31       -10.2456    4.9980   48.9138 H       1  ZINC000124554441    0.0600
     32 H32        -8.7804    4.0892   48.4709 H       1  ZINC000124554441    0.0600
     33 H33        -9.6634    4.7672   51.3130 H       1  ZINC000124554441    0.0600
     34 H34        -9.8063    3.1731   50.5341 H       1  ZINC000124554441    0.0600
     35 H35        -7.3528    3.0684   50.2682 H       1  ZINC000124554441    0.0700
     36 H36        -7.1945    4.6800   51.0070 H       1  ZINC000124554441    0.0700
     37 H37        -8.1877    3.8328   53.1027 H       1  ZINC000124554441    0.0700
     38 H38        -8.3972    2.2260   52.3661 H       1  ZINC000124554441    0.0700
     39 H39        -6.0005    1.9392   52.1431 H       1  ZINC000124554441    0.0700
     40 H40        -5.7021    3.6256   52.6279 H       1  ZINC000124554441    0.0700
     41 H41        -6.3515    1.4089   54.4069 H       1  ZINC000124554441    0.4000
     42 H42        -4.5743    4.1811   57.0762 H       1  ZINC000124554441    0.0800
     43 H43        -6.1895    4.8745   57.3545 H       1  ZINC000124554441    0.0800
     44 H44        -4.9314    2.6180   58.9807 H       1  ZINC000124554441    0.0700
     45 H45        -5.0531    4.3177   59.4973 H       1  ZINC000124554441    0.0900
     46 H46        -6.8940    2.8670   60.4240 H       1  ZINC000124554441    0.1000
     47 H47        -7.5002    4.2096   59.4203 H       1  ZINC000124554441    0.0800
     48 H48        -6.1021    0.1533   60.4254 H       1  ZINC000124554441    0.1500
     49 H49        -6.0255   -0.2964   62.8395 H       1  ZINC000124554441    0.1500
     50 H50       -10.1084    1.6308   60.8241 H       1  ZINC000124554441    0.1500
     51 H51        -8.2513    3.4716   56.8955 H       1  ZINC000124554441    0.0800
     52 H52        -8.0470    1.7348   56.5506 H       1  ZINC000124554441    0.1000
@<TRIPOS>BOND
     1     1     2    1
     2     1    28    1
     3     1    29    1
     4     1    30    1
     5     2     3    1
     6     2    31    1
     7     2    32    1
     8     3     4    1
     9     3    33    1
    10     3    34    1
    11     4     5    1
    12     4    35    1
    13     4    36    1
    14     5     6    1
    15     5    37    1
    16     5    38    1
    17     6     7    1
    18     6    39    1
    19     6    40    1
    20     7     8   am
    21     7    41    1
    22     8     9    2
    23     8    10    1
    24    10    11    1
    25    10    27    1
    26    10    12    1
    27    12    13    1
    28    12    42    1
    29    12    43    1
    30    13    14    1
    31    13    44    1
    32    13    45    1
    33    14    15    1
    34    14    46    1
    35    14    47    1
    36    15    16   am
    37    15    27    1
    38    16    17    2
    39    16    18    1
    40    18    26   ar
    41    18    19   ar
    42    19    20   ar
    43    19    48    1
    44    20    21   ar
    45    20    49    1
    46    21    22    1
    47    21    24   ar
    48    22    23    3
    49    24    25    1
    50    24    26   ar
    51    26    50    1
    52    27    51    1
    53    27    52    1
@<TRIPOS>SUBSTRUCTURE
     1 ZINC000124554441        1 TEMP              0 ****  ****    0 ROOT


##########                                Name:    ZINC001328997126
##########                DOCK_Rotatable_Bonds:                   7
##########                         Heavy_Atoms:                  26
##########                    Molecular_Weight:             388.488
##########                DOCK_Rotatable_Bonds:                   7
##########                       Formal_Charge:           0.0299993
##########                     HBond_Acceptors:                  10
##########                        HBond_Donors:                   1
##########                         Heavy_Atoms:                  26
##########                          Grid_Score:          -30.755678
##########                     Grid_vdw_energy:          -27.953686
##########                      Grid_es_energy:           -2.801993
##########           Internal_energy_repulsive:           15.067580

@<TRIPOS>MOLECULE
ZINC001328997126
 54 56 1 0 0
SMALL
USER_CHARGES


@<TRIPOS>ATOM
      1 C1        -13.2961   -2.5409   58.6648 C.3     1  ZINC001328997126   -0.1700
      2 C2        -12.3888   -3.0615   57.5481 C.3     1  ZINC001328997126    0.1400
      3 N3        -11.1089   -2.3499   57.5873 N.am    1  ZINC001328997126   -0.6300
      4 C4        -10.8962   -1.0017   58.1356 C.3     1  ZINC001328997126    0.0700
      5 C5         -9.3904   -0.7525   57.9232 C.3     1  ZINC001328997126    0.0700
      6 H6         -8.8892   -0.6030   58.8796 H       1  ZINC001328997126    0.1200
      7 C7         -9.1702    0.4546   57.0093 C.3     1  ZINC001328997126    0.0500
      8 N8         -8.7628    1.6121   57.8167 N.3     1  ZINC001328997126   -0.5300
      9 C9         -7.4058    1.4306   58.3507 C.3     1  ZINC001328997126    0.0500
     10 C10        -6.9896    2.6882   59.1173 C.3     1  ZINC001328997126    0.0600
     11 N11        -7.9499    2.9383   60.2012 N.3     1  ZINC001328997126   -0.5200
     12 C12        -7.5426    4.0960   61.0087 C.3     1  ZINC001328997126    0.0400
     13 C13        -7.5816    3.7282   62.4696 C.2     1  ZINC001328997126    0.5200
     14 O14        -7.7672    4.5866   63.3062 O.2     1  ZINC001328997126   -0.5100
     15 N15        -7.4101    2.4457   62.8464 N.am    1  ZINC001328997126   -0.7300
     16 C16        -7.4462    2.0885   64.2668 C.3     1  ZINC001328997126    0.1600
     17 H17        -6.7578    2.7253   64.8223 H       1  ZINC001328997126    0.1100
     18 C18        -8.8738    2.2723   64.8104 C.3     1  ZINC001328997126   -0.1400
     19 C19        -8.9152    1.5733   66.1938 C.3     1  ZINC001328997126   -0.5800
     20 S20        -7.9926    0.0202   65.8836 S.o2    1  ZINC001328997126    2.4000
     21 O21        -7.1061   -0.2252   66.9667 O.2     1  ZINC001328997126   -0.9300
     22 O22        -8.8998   -0.9915   65.4683 O.2     1  ZINC001328997126   -0.9300
     23 C23        -7.0403    0.6113   64.4402 C.3     1  ZINC001328997126   -0.6100
     24 C24        -9.3069    3.1199   59.6673 C.3     1  ZINC001328997126    0.0500
     25 C25        -9.7231    1.8623   58.9007 C.3     1  ZINC001328997126    0.0600
     26 O26        -8.9176   -1.9736   57.2842 O.3     1  ZINC001328997126   -0.3100
     27 C27        -9.9399   -2.8233   57.1346 C.2     1  ZINC001328997126    0.6400
     28 O28        -9.8209   -3.9208   56.6270 O.2     1  ZINC001328997126   -0.5200
     29 H29       -12.8170   -2.7078   59.6296 H       1  ZINC001328997126    0.0600
     30 H30       -13.4691   -1.4740   58.5247 H       1  ZINC001328997126    0.0600
     31 H31       -14.2484   -3.0704   58.6357 H       1  ZINC001328997126    0.0700
     32 H32       -12.2158   -4.1285   57.6883 H       1  ZINC001328997126    0.0900
     33 H33       -12.8679   -2.8947   56.5834 H       1  ZINC001328997126    0.0900
     34 H34       -11.4867   -0.2677   57.5873 H       1  ZINC001328997126    0.0900
     35 H35       -11.1424   -0.9769   59.1972 H       1  ZINC001328997126    0.0900
     36 H36        -8.3892    0.2240   56.2848 H       1  ZINC001328997126    0.0900
     37 H37       -10.0965    0.6862   56.4837 H       1  ZINC001328997126    0.0600
     38 H38        -7.3915    0.5732   59.0235 H       1  ZINC001328997126    0.0500
     39 H39        -6.7113    1.2595   57.5283 H       1  ZINC001328997126    0.0900
     40 H40        -5.9947    2.5446   59.5387 H       1  ZINC001328997126    0.0800
     41 H41        -6.9776    3.5407   58.4382 H       1  ZINC001328997126    0.0500
     42 H42        -6.5297    4.3914   60.7352 H       1  ZINC001328997126    0.1100
     43 H43        -8.2253    4.9256   60.8245 H       1  ZINC001328997126    0.0700
     44 H44        -7.2627    1.7591   62.1772 H       1  ZINC001328997126    0.4100
     45 H45        -9.0974    3.3333   64.9214 H       1  ZINC001328997126    0.1100
     46 H46        -9.5929    1.8075   64.1357 H       1  ZINC001328997126    0.0900
     47 H47        -8.4119    2.1782   66.9480 H       1  ZINC001328997126    0.1400
     48 H48        -9.9426    1.3606   66.4893 H       1  ZINC001328997126    0.1400
     49 H49        -7.3048    0.0378   63.5517 H       1  ZINC001328997126    0.1400
     50 H50        -5.9708    0.5361   64.6359 H       1  ZINC001328997126    0.1500
     51 H51       -10.0015    3.2910   60.4897 H       1  ZINC001328997126    0.1000
     52 H52        -9.3212    3.9774   58.9944 H       1  ZINC001328997126    0.0400
     53 H53       -10.7180    2.0060   58.4791 H       1  ZINC001328997126    0.0800
     54 H54        -9.7351    1.0097   59.5798 H       1  ZINC001328997126    0.0500
@<TRIPOS>BOND
     1     1     2    1
     2     1    29    1
     3     1    30    1
     4     1    31    1
     5     2     3    1
     6     2    32    1
     7     2    33    1
     8     3    27   am
     9     3     4    1
    10     4     5    1
    11     4    34    1
    12     4    35    1
    13     5     6    1
    14     5     7    1
    15     5    26    1
    16     7     8    1
    17     7    36    1
    18     7    37    1
    19     8    25    1
    20     8     9    1
    21     9    10    1
    22     9    38    1
    23     9    39    1
    24    10    11    1
    25    10    40    1
    26    10    41    1
    27    11    12    1
    28    11    24    1
    29    12    13    1
    30    12    42    1
    31    12    43    1
    32    13    14    2
    33    13    15   am
    34    15    16    1
    35    15    44    1
    36    16    17    1
    37    16    23    1
    38    16    18    1
    39    18    19    1
    40    18    45    1
    41    18    46    1
    42    19    20    1
    43    19    47    1
    44    19    48    1
    45    20    21    2
    46    20    22    2
    47    20    23    1
    48    23    49    1
    49    23    50    1
    50    24    25    1
    51    24    51    1
    52    24    52    1
    53    25    53    1
    54    25    54    1
    55    26    27    1
    56    27    28    2
@<TRIPOS>SUBSTRUCTURE
     1 ZINC001328997126        1 TEMP              0 ****  ****    0 ROOT


##########                                Name:    ZINC000050607728
##########                DOCK_Rotatable_Bonds:                  10
##########                         Heavy_Atoms:                  31
##########                    Molecular_Weight:             416.476
##########                DOCK_Rotatable_Bonds:                  10
##########                       Formal_Charge:          -0.0199995
##########                     HBond_Acceptors:                   6
##########                        HBond_Donors:                   1
##########                         Heavy_Atoms:                  31
##########                          Grid_Score:          -30.753557
##########                     Grid_vdw_energy:          -30.800394
##########                      Grid_es_energy:            0.046836
##########           Internal_energy_repulsive:           13.215765

@<TRIPOS>MOLECULE
ZINC000050607728
 55 57 1 0 0
SMALL
USER_CHARGES


@<TRIPOS>ATOM
      1 C1         -3.2057    2.4600   51.7766 C.3     1  ZINC000050607728    0.0800
      2 N2         -4.6600    2.3303   51.8969 N.am    1  ZINC000050607728   -0.6200
      3 C3         -5.4239    1.6501   50.8481 C.3     1  ZINC000050607728    0.0700
      4 C4         -5.2951    2.8367   52.9723 C.2     1  ZINC000050607728    0.5600
      5 O5         -4.6613    3.4010   53.8426 O.2     1  ZINC000050607728   -0.5300
      6 C6         -6.7627    2.7059   53.0937 C.ar    1  ZINC000050607728   -0.1400
      7 C7         -7.5813    3.8257   52.9400 C.ar    1  ZINC000050607728   -0.0800
      8 C8         -8.9503    3.6966   53.0540 C.ar    1  ZINC000050607728   -0.1300
      9 C9         -9.5117    2.4607   53.3206 C.ar    1  ZINC000050607728   -0.0700
     10 C10        -8.7057    1.3465   53.4746 C.ar    1  ZINC000050607728   -0.1100
     11 C11        -9.3260    0.0041   53.7654 C.3     1  ZINC000050607728    0.1100
     12 O12        -9.4801   -0.1573   55.2001 O.3     1  ZINC000050607728   -0.3400
     13 C13        -9.8847   -1.3599   55.6381 C.2     1  ZINC000050607728    0.4700
     14 O14       -10.0338   -2.2688   54.8561 O.2     1  ZINC000050607728   -0.5000
     15 C15       -10.1530   -1.5763   57.1051 C.3     1  ZINC000050607728    0.2000
     16 H16        -9.8553   -2.5872   57.3837 H       1  ZINC000050607728    0.1400
     17 N17        -9.3845   -0.6072   57.8903 N.am    1  ZINC000050607728   -0.7100
     18 C18        -9.4447   -0.6315   59.2365 C.2     1  ZINC000050607728    0.5700
     19 O19       -10.1351   -1.4585   59.7992 O.2     1  ZINC000050607728   -0.5200
     20 C20        -8.6705    0.3477   60.0288 C.ar    1  ZINC000050607728   -0.1400
     21 C21        -8.8436    0.4238   61.4117 C.ar    1  ZINC000050607728   -0.0800
     22 C22        -8.1177    1.3394   62.1452 C.ar    1  ZINC000050607728   -0.1300
     23 C23        -7.2201    2.1813   61.5130 C.ar    1  ZINC000050607728   -0.0900
     24 C24        -7.0442    2.1113   60.1424 C.ar    1  ZINC000050607728   -0.1300
     25 C25        -7.7592    1.1960   59.3980 C.ar    1  ZINC000050607728   -0.0600
     26 C26       -11.6233   -1.3921   57.3794 C.ar    1  ZINC000050607728   -0.1000
     27 C27       -12.3911   -2.4681   57.7837 C.ar    1  ZINC000050607728   -0.1000
     28 C28       -13.7398   -2.2991   58.0354 C.ar    1  ZINC000050607728   -0.1200
     29 C29       -14.3206   -1.0540   57.8830 C.ar    1  ZINC000050607728   -0.1100
     30 C30       -13.5526    0.0222   57.4795 C.ar    1  ZINC000050607728   -0.1200
     31 C31       -12.2030   -0.1458   57.2320 C.ar    1  ZINC000050607728   -0.0800
     32 C32        -7.3362    1.4607   53.3569 C.ar    1  ZINC000050607728   -0.0400
     33 H33        -2.9655    3.3863   51.2547 H       1  ZINC000050607728    0.0600
     34 H34        -2.7590    2.4768   52.7708 H       1  ZINC000050607728    0.0800
     35 H35        -2.8106    1.6136   51.2150 H       1  ZINC000050607728    0.0700
     36 H36        -5.4209    0.5762   51.0348 H       1  ZINC000050607728    0.0600
     37 H37        -6.4506    2.0165   50.8507 H       1  ZINC000050607728    0.0800
     38 H38        -4.9688    1.8516   49.8783 H       1  ZINC000050607728    0.0700
     39 H39        -7.1441    4.7912   52.7325 H       1  ZINC000050607728    0.1400
     40 H40        -9.5849    4.5624   52.9353 H       1  ZINC000050607728    0.1400
     41 H41       -10.5838    2.3651   53.4093 H       1  ZINC000050607728    0.1300
     42 H42       -10.3030   -0.0562   53.2860 H       1  ZINC000050607728    0.0900
     43 H43        -8.6818   -0.7853   53.3780 H       1  ZINC000050607728    0.0900
     44 H44        -8.8326    0.0521   57.4413 H       1  ZINC000050607728    0.4100
     45 H45        -9.5445   -0.2323   61.9064 H       1  ZINC000050607728    0.1300
     46 H46        -8.2507    1.3994   63.2153 H       1  ZINC000050607728    0.1300
     47 H47        -6.6546    2.8966   62.0917 H       1  ZINC000050607728    0.1300
     48 H48        -6.3422    2.7715   59.6548 H       1  ZINC000050607728    0.1300
     49 H49        -7.6207    1.1421   58.3282 H       1  ZINC000050607728    0.1400
     50 H50       -11.9373   -3.4409   57.9028 H       1  ZINC000050607728    0.1200
     51 H51       -14.3398   -3.1399   58.3507 H       1  ZINC000050607728    0.1200
     52 H52       -15.3745   -0.9221   58.0789 H       1  ZINC000050607728    0.1200
     53 H53       -14.0065    0.9950   57.3601 H       1  ZINC000050607728    0.1300
     54 H54       -11.6031    0.6949   56.9167 H       1  ZINC000050607728    0.1300
     55 H55        -6.7082    0.5902   53.4770 H       1  ZINC000050607728    0.1300
@<TRIPOS>BOND
     1     1     2    1
     2     1    33    1
     3     1    34    1
     4     1    35    1
     5     2     3    1
     6     2     4   am
     7     3    36    1
     8     3    37    1
     9     3    38    1
    10     4     5    2
    11     4     6    1
    12     6    32   ar
    13     6     7   ar
    14     7     8   ar
    15     7    39    1
    16     8     9   ar
    17     8    40    1
    18     9    10   ar
    19     9    41    1
    20    10    11    1
    21    10    32   ar
    22    11    12    1
    23    11    42    1
    24    11    43    1
    25    12    13    1
    26    13    14    2
    27    13    15    1
    28    15    16    1
    29    15    17    1
    30    15    26    1
    31    17    18   am
    32    17    44    1
    33    18    19    2
    34    18    20    1
    35    20    25   ar
    36    20    21   ar
    37    21    22   ar
    38    21    45    1
    39    22    23   ar
    40    22    46    1
    41    23    24   ar
    42    23    47    1
    43    24    25   ar
    44    24    48    1
    45    25    49    1
    46    26    31   ar
    47    26    27   ar
    48    27    28   ar
    49    27    50    1
    50    28    29   ar
    51    28    51    1
    52    29    30   ar
    53    29    52    1
    54    30    31   ar
    55    30    53    1
    56    31    54    1
    57    32    55    1
@<TRIPOS>SUBSTRUCTURE
     1 ZINC000050607728        1 TEMP              0 ****  ****    0 ROOT


##########                                Name:    ZINC000740843182
##########                DOCK_Rotatable_Bonds:                  10
##########                         Heavy_Atoms:                  24
##########                    Molecular_Weight:              419.34
##########                DOCK_Rotatable_Bonds:                  10
##########                       Formal_Charge:          0.00999957
##########                     HBond_Acceptors:                   7
##########                        HBond_Donors:                   3
##########                         Heavy_Atoms:                  24
##########                          Grid_Score:          -30.737144
##########                     Grid_vdw_energy:          -29.544212
##########                      Grid_es_energy:           -1.192931
##########           Internal_energy_repulsive:           13.177436

@<TRIPOS>MOLECULE
ZINC000740843182
 47 48 1 0 0
SMALL
USER_CHARGES


@<TRIPOS>ATOM
      1 C1         -9.1801   -0.2658   53.6637 C.3     1  ZINC000740843182   -0.1500
      2 C2        -10.2703   -1.3324   53.7865 C.3     1  ZINC000740843182   -0.1000
      3 H3        -10.2750   -1.9520   52.8898 H       1  ZINC000740843182    0.0900
      4 C4         -9.9916   -2.2078   55.0099 C.3     1  ZINC000740843182    0.1200
      5 N5        -10.0499   -1.3866   56.2216 N.am    1  ZINC000740843182   -0.7200
      6 C6         -9.7389   -1.9259   57.4170 C.2     1  ZINC000740843182    0.5500
      7 O7         -9.4116   -3.0943   57.4899 O.2     1  ZINC000740843182   -0.5000
      8 C8         -9.7961   -1.0969   58.6391 C.ar    1  ZINC000740843182   -0.1300
      9 C9         -8.6536   -0.4346   59.0911 C.ar    1  ZINC000740843182    0.0200
     10 C10        -8.7139    0.3380   60.2323 C.ar    1  ZINC000740843182   -0.6800
     11 S11        -7.2725    1.1747   60.8042 S.o2    1  ZINC000740843182    2.7000
     12 O12        -6.2492    0.9051   59.8559 O.2     1  ZINC000740843182   -0.9400
     13 O13        -7.6833    2.4899   61.1515 O.2     1  ZINC000740843182   -0.9500
     14 N14        -6.8076    0.4421   62.2147 N.am    1  ZINC000740843182   -1.0900
     15 C15        -7.7204    0.4124   63.3601 C.3     1  ZINC000740843182    0.0800
     16 C16        -7.1027    0.4865   64.7579 C.3     1  ZINC000740843182   -0.1800
     17 C17        -7.8553    1.6912   64.1893 C.3     1  ZINC000740843182   -0.1900
     18 C18        -9.9035    0.4580   60.9289 C.ar    1  ZINC000740843182    0.0100
     19 C19       -11.0400   -0.1952   60.4874 C.ar    1  ZINC000740843182   -0.1200
     20 C20       -10.9953   -0.9679   59.3441 C.ar    1  ZINC000740843182    0.0100
     21 Br21      -12.5498   -1.8604   58.7417 Br      1  ZINC000740843182    0.0100
     22 C22       -11.6323   -0.6536   53.9446 C.3     1  ZINC000740843182   -0.1400
     23 C23       -12.0744   -0.0775   52.5979 C.3     1  ZINC000740843182    0.1000
     24 H24       -11.3474    0.6624   52.2629 H       1  ZINC000740843182    0.1000
     25 C25       -13.4440    0.5867   52.7521 C.3     1  ZINC000740843182   -0.1900
     26 O26       -12.1611   -1.1298   51.6350 O.3     1  ZINC000740843182   -0.5600
     27 H27        -9.3786    0.3579   52.7920 H       1  ZINC000740843182    0.0600
     28 H28        -9.1754    0.3538   54.5604 H       1  ZINC000740843182    0.0600
     29 H29        -8.2098   -0.7494   53.5511 H       1  ZINC000740843182    0.0500
     30 H30       -10.7405   -2.9975   55.0698 H       1  ZINC000740843182    0.0700
     31 H31        -9.0006   -2.6529   54.9200 H       1  ZINC000740843182    0.0700
     32 H32       -10.3124   -0.4545   56.1637 H       1  ZINC000740843182    0.4000
     33 H33        -7.7244   -0.5271   58.5487 H       1  ZINC000740843182    0.1500
     34 H34        -5.9309    0.0327   62.2824 H       1  ZINC000740843182    0.4200
     35 H35        -8.6116   -0.2028   63.2353 H       1  ZINC000740843182    0.1400
     36 H36        -7.5873   -0.0802   65.5530 H       1  ZINC000740843182    0.1100
     37 H37        -6.0171    0.5574   64.8252 H       1  ZINC000740843182    0.1000
     38 H38        -7.2649    2.5545   63.8825 H       1  ZINC000740843182    0.1000
     39 H39        -8.8351    1.9170   64.6103 H       1  ZINC000740843182    0.1100
     40 H40        -9.9445    1.0644   61.8217 H       1  ZINC000740843182    0.1600
     41 H41       -11.9652   -0.0973   61.0358 H       1  ZINC000740843182    0.1500
     42 H42       -12.3653   -1.3849   54.2851 H       1  ZINC000740843182    0.0700
     43 H43       -11.5547    0.1509   54.6759 H       1  ZINC000740843182    0.0800
     44 H44       -13.3778    1.3895   53.4866 H       1  ZINC000740843182    0.0700
     45 H45       -13.7590    0.9972   51.7927 H       1  ZINC000740843182    0.0600
     46 H46       -14.1710   -0.1531   53.0871 H       1  ZINC000740843182    0.0600
     47 H47       -12.4494   -0.8387   50.7590 H       1  ZINC000740843182    0.3700
@<TRIPOS>BOND
     1     1     2    1
     2     1    27    1
     3     1    28    1
     4     1    29    1
     5     2     3    1
     6     2     4    1
     7     2    22    1
     8     4     5    1
     9     4    30    1
    10     4    31    1
    11     5     6   am
    12     5    32    1
    13     6     7    2
    14     6     8    1
    15     8    20   ar
    16     8     9   ar
    17     9    10   ar
    18     9    33    1
    19    10    11    1
    20    10    18   ar
    21    11    12    2
    22    11    13    2
    23    11    14   am
    24    14    15    1
    25    14    34    1
    26    15    17    1
    27    15    16    1
    28    15    35    1
    29    16    17    1
    30    16    36    1
    31    16    37    1
    32    17    38    1
    33    17    39    1
    34    18    19   ar
    35    18    40    1
    36    19    20   ar
    37    19    41    1
    38    20    21    1
    39    22    23    1
    40    22    42    1
    41    22    43    1
    42    23    24    1
    43    23    25    1
    44    23    26    1
    45    25    44    1
    46    25    45    1
    47    25    46    1
    48    26    47    1
@<TRIPOS>SUBSTRUCTURE
     1 ZINC000740843182        1 TEMP              0 ****  ****    0 ROOT


##########                                Name:    ZINC000428748914
##########                DOCK_Rotatable_Bonds:                  11
##########                         Heavy_Atoms:                  30
##########                    Molecular_Weight:             413.492
##########                DOCK_Rotatable_Bonds:                  11
##########                       Formal_Charge:           0.0199993
##########                     HBond_Acceptors:                   7
##########                        HBond_Donors:                   3
##########                         Heavy_Atoms:                  30
##########                          Grid_Score:          -30.704565
##########                     Grid_vdw_energy:          -30.088213
##########                      Grid_es_energy:           -0.616352
##########           Internal_energy_repulsive:           22.203955

@<TRIPOS>MOLECULE
ZINC000428748914
 58 61 1 0 0
SMALL
USER_CHARGES


@<TRIPOS>ATOM
      1 O1         -3.8728    5.6544   54.1371 O.2     1  ZINC000428748914   -0.5900
      2 C2         -3.9499    4.6028   53.5316 C.2     1  ZINC000428748914    0.7000
      3 N3         -2.8331    3.9011   53.2547 N.am    1  ZINC000428748914   -0.7400
      4 C4         -1.5255    4.4084   53.6782 C.3     1  ZINC000428748914    0.1900
      5 C5         -1.1578    3.8015   55.0076 C.ar    1  ZINC000428748914   -0.2000
      6 C6          0.1600    3.4655   55.2847 C.ar    1  ZINC000428748914   -0.0200
      7 C7          0.4543    2.9104   56.5181 C.ar    1  ZINC000428748914   -0.1900
      8 C8         -0.5726    2.7094   57.4312 C.ar    1  ZINC000428748914    0.3300
      9 O9         -0.2971    2.1665   58.6436 O.3     1  ZINC000428748914   -0.3000
     10 C10         1.0814    2.0207   58.9910 C.3     1  ZINC000428748914    0.0800
     11 C11         1.7051    3.3987   59.3245 C.3     1  ZINC000428748914   -0.1400
     12 C12         2.9096    3.0205   60.2219 C.3     1  ZINC000428748914   -0.1200
     13 C13         2.3888    1.8492   61.0803 C.3     1  ZINC000428748914   -0.1200
     14 C14         1.2264    1.2136   60.2976 C.3     1  ZINC000428748914   -0.1200
     15 N15        -1.8169    3.0428   57.1302 N.ar    1  ZINC000428748914   -0.5400
     16 C16        -2.1274    3.5789   55.9653 C.ar    1  ZINC000428748914    0.1600
     17 N17        -5.1528    4.1362   53.1421 N.am    1  ZINC000428748914   -0.7400
     18 C18        -6.3670    4.8989   53.4430 C.3     1  ZINC000428748914    0.1800
     19 C19        -7.5968    4.0456   53.1267 C.3     1  ZINC000428748914   -0.1300
     20 C20        -7.6406    3.4472   51.7192 C.3     1  ZINC000428748914    0.1100
     21 O21        -7.5555    4.4964   50.7527 O.3     1  ZINC000428748914   -0.5700
     22 C22        -8.9263    4.4604   53.7601 C.3     1  ZINC000428748914   -0.1400
     23 C23        -8.1932    3.2163   54.2657 C.3     1  ZINC000428748914   -0.1000
     24 H24        -7.7094    3.2786   55.2405 H       1  ZINC000428748914    0.1200
     25 C25        -8.7796    1.8728   53.9158 C.ar    1  ZINC000428748914   -0.0700
     26 C26        -7.9478    0.8281   53.5583 C.ar    1  ZINC000428748914   -0.0900
     27 C27        -8.4844   -0.4043   53.2372 C.ar    1  ZINC000428748914   -0.1500
     28 C28        -9.8557   -0.5925   53.2742 C.ar    1  ZINC000428748914    0.1000
     29 F29       -10.3814   -1.7971   52.9610 F       1  ZINC000428748914   -0.1400
     30 C30       -10.6878    0.4544   53.6329 C.ar    1  ZINC000428748914   -0.1500
     31 C31       -10.1485    1.6846   53.9581 C.ar    1  ZINC000428748914   -0.0800
     32 H32        -2.8949    3.0603   52.7751 H       1  ZINC000428748914    0.4000
     33 H33        -0.7738    4.1399   52.9358 H       1  ZINC000428748914    0.0800
     34 H34        -1.5703    5.4932   53.7739 H       1  ZINC000428748914    0.0800
     35 H35         0.9380    3.6331   54.5547 H       1  ZINC000428748914    0.1400
     36 H36         1.4690    2.6367   56.7669 H       1  ZINC000428748914    0.1400
     37 H37         1.6289    1.5378   58.1816 H       1  ZINC000428748914    0.1000
     38 H38         2.0418    3.9001   58.4172 H       1  ZINC000428748914    0.0700
     39 H39         0.9967    4.0213   59.8711 H       1  ZINC000428748914    0.0800
     40 H40         3.7542    2.7004   59.6119 H       1  ZINC000428748914    0.0700
     41 H41         3.1923    3.8614   60.8553 H       1  ZINC000428748914    0.0700
     42 H42         3.1813    1.1166   61.2324 H       1  ZINC000428748914    0.0700
     43 H43         2.0331    2.2201   62.0416 H       1  ZINC000428748914    0.0700
     44 H44         0.3065    1.2759   60.8791 H       1  ZINC000428748914    0.0800
     45 H45         1.4549    0.1724   60.0700 H       1  ZINC000428748914    0.0700
     46 H46        -3.1543    3.8388   55.7547 H       1  ZINC000428748914    0.1600
     47 H47        -5.2148    3.2953   52.6625 H       1  ZINC000428748914    0.3900
     48 H48        -6.3739    5.1691   54.4989 H       1  ZINC000428748914    0.0700
     49 H49        -6.3870    5.8042   52.8362 H       1  ZINC000428748914    0.0900
     50 H50        -6.8014    2.7640   51.5886 H       1  ZINC000428748914    0.0500
     51 H51        -8.5757    2.9039   51.5843 H       1  ZINC000428748914    0.0600
     52 H52        -7.2963    4.1981   49.8702 H       1  ZINC000428748914    0.3800
     53 H53        -8.9248    5.3412   54.4021 H       1  ZINC000428748914    0.1100
     54 H54        -9.8326    4.3072   53.1740 H       1  ZINC000428748914    0.1100
     55 H55        -6.8783    0.9752   53.5295 H       1  ZINC000428748914    0.1400
     56 H56        -7.8346   -1.2201   52.9573 H       1  ZINC000428748914    0.1400
     57 H57       -11.7575    0.3088   53.6618 H       1  ZINC000428748914    0.1400
     58 H58       -10.7973    2.5013   54.2383 H       1  ZINC000428748914    0.1300
@<TRIPOS>BOND
     1     1     2    2
     2     2     3   am
     3     2    17   am
     4     3     4    1
     5     3    32    1
     6     4     5    1
     7     4    33    1
     8     4    34    1
     9     5    16   ar
    10     5     6   ar
    11     6     7   ar
    12     6    35    1
    13     7     8   ar
    14     7    36    1
    15     8     9    1
    16     8    15   ar
    17     9    10    1
    18    10    14    1
    19    10    11    1
    20    10    37    1
    21    11    12    1
    22    11    38    1
    23    11    39    1
    24    12    13    1
    25    12    40    1
    26    12    41    1
    27    13    14    1
    28    13    42    1
    29    13    43    1
    30    14    44    1
    31    14    45    1
    32    15    16   ar
    33    16    46    1
    34    17    18    1
    35    17    47    1
    36    18    19    1
    37    18    48    1
    38    18    49    1
    39    19    23    1
    40    19    20    1
    41    19    22    1
    42    20    21    1
    43    20    50    1
    44    20    51    1
    45    21    52    1
    46    22    23    1
    47    22    53    1
    48    22    54    1
    49    23    24    1
    50    23    25    1
    51    25    31   ar
    52    25    26   ar
    53    26    27   ar
    54    26    55    1
    55    27    28   ar
    56    27    56    1
    57    28    29    1
    58    28    30   ar
    59    30    31   ar
    60    30    57    1
    61    31    58    1
@<TRIPOS>SUBSTRUCTURE
     1 ZINC000428748914        1 TEMP              0 ****  ****    0 ROOT


##########                                Name:    ZINC000114394234
##########                DOCK_Rotatable_Bonds:                   9
##########                         Heavy_Atoms:                  27
##########                    Molecular_Weight:             365.392
##########                DOCK_Rotatable_Bonds:                   9
##########                       Formal_Charge:           0.0300002
##########                     HBond_Acceptors:                   8
##########                        HBond_Donors:                   3
##########                         Heavy_Atoms:                  27
##########                          Grid_Score:          -30.700449
##########                     Grid_vdw_energy:          -31.575384
##########                      Grid_es_energy:            0.874936
##########           Internal_energy_repulsive:           14.495714

@<TRIPOS>MOLECULE
ZINC000114394234
 46 48 1 0 0
SMALL
USER_CHARGES


@<TRIPOS>ATOM
      1 C1        -10.0197   -1.4228   53.3572 C.3     1  ZINC000114394234   -0.1600
      2 C2         -9.9279   -0.6432   54.6704 C.3     1  ZINC000114394234    0.1300
      3 H3        -10.9090   -0.2413   54.9237 H       1  ZINC000114394234    0.1200
      4 N4         -9.4761   -1.5379   55.7390 N.am    1  ZINC000114394234   -0.7100
      5 C5        -10.3726   -2.2720   56.4273 C.2     1  ZINC000114394234    0.5200
      6 O6        -11.5536   -2.1907   56.1633 O.2     1  ZINC000114394234   -0.5100
      7 C7         -9.9078   -3.1936   57.5252 C.3     1  ZINC000114394234    0.0400
      8 O8        -10.9106   -3.2690   58.5404 O.3     1  ZINC000114394234   -0.2900
      9 C9        -11.2170   -2.1163   59.1919 C.ar    1  ZINC000114394234    0.1300
     10 C10       -10.3317   -1.0484   59.1681 C.ar    1  ZINC000114394234   -0.2100
     11 C11       -10.6457    0.1224   59.8308 C.ar    1  ZINC000114394234   -0.0800
     12 C12       -11.8408    0.2303   60.5176 C.ar    1  ZINC000114394234   -0.1600
     13 C13       -12.7245   -0.8328   60.5433 C.ar    1  ZINC000114394234   -0.0800
     14 C14       -12.4180   -2.0036   59.8770 C.ar    1  ZINC000114394234   -0.1500
     15 C15        -8.9461    0.4894   54.5147 C.2     1  ZINC000114394234    0.5100
     16 O16        -8.2573    0.8282   55.4538 O.2     1  ZINC000114394234   -0.5100
     17 N17        -8.8333    1.1257   53.3321 N.am    1  ZINC000114394234   -0.6700
     18 C18        -7.9215    2.1774   53.1876 C.ar    1  ZINC000114394234    0.1300
     19 C19        -8.3072    3.4777   53.4887 C.ar    1  ZINC000114394234   -0.1200
     20 C20        -7.4093    4.5190   53.3473 C.ar    1  ZINC000114394234   -0.1000
     21 C21        -6.1249    4.2730   52.9056 C.ar    1  ZINC000114394234   -0.0900
     22 C22        -5.7295    2.9716   52.6006 C.ar    1  ZINC000114394234    0.0000
     23 C23        -4.3490    2.7056   52.1251 C.2     1  ZINC000114394234    0.2700
     24 N24        -3.2666    3.3386   52.5212 N.2     1  ZINC000114394234   -0.3000
     25 N25        -2.1887    2.7718   51.8219 N.pl3   1  ZINC000114394234   -0.4800
     26 C26        -2.7063    1.8130   51.0331 C.2     1  ZINC000114394234    0.2700
     27 N27        -3.9984    1.7767   51.2255 N.2     1  ZINC000114394234   -0.5300
     28 C28        -6.6309    1.9214   52.7492 C.ar    1  ZINC000114394234   -0.0800
     29 H29        -9.0387   -1.8247   53.1039 H       1  ZINC000114394234    0.0700
     30 H30       -10.7299   -2.2420   53.4698 H       1  ZINC000114394234    0.0800
     31 H31       -10.3558   -0.7571   52.5622 H       1  ZINC000114394234    0.0800
     32 H32        -8.5318   -1.6019   55.9510 H       1  ZINC000114394234    0.4100
     33 H33        -9.7309   -4.1877   57.1146 H       1  ZINC000114394234    0.1000
     34 H34        -8.9833   -2.8086   57.9557 H       1  ZINC000114394234    0.1000
     35 H35        -9.3977   -1.1324   58.6324 H       1  ZINC000114394234    0.1300
     36 H36        -9.9569    0.9540   59.8125 H       1  ZINC000114394234    0.1300
     37 H37       -12.0843    1.1463   61.0353 H       1  ZINC000114394234    0.1300
     38 H38       -13.6572   -0.7462   61.0807 H       1  ZINC000114394234    0.1300
     39 H39       -13.1087   -2.8336   59.8973 H       1  ZINC000114394234    0.1300
     40 H40        -9.3841    0.8547   52.5810 H       1  ZINC000114394234    0.4200
     41 H41        -9.3112    3.6754   53.8340 H       1  ZINC000114394234    0.1300
     42 H42        -7.7138    5.5281   53.5826 H       1  ZINC000114394234    0.1400
     43 H43        -5.4261    5.0892   52.7958 H       1  ZINC000114394234    0.1400
     44 H44        -1.2544    3.0227   51.8934 H       1  ZINC000114394234    0.4400
     45 H45        -2.1491    1.1785   50.3597 H       1  ZINC000114394234    0.2300
     46 H46        -6.3292    0.9114   52.5142 H       1  ZINC000114394234    0.1500
@<TRIPOS>BOND
     1     1     2    1
     2     1    29    1
     3     1    30    1
     4     1    31    1
     5     2     3    1
     6     2     4    1
     7     2    15    1
     8     4     5   am
     9     4    32    1
    10     5     6    2
    11     5     7    1
    12     7     8    1
    13     7    33    1
    14     7    34    1
    15     8     9    1
    16     9    14   ar
    17     9    10   ar
    18    10    11   ar
    19    10    35    1
    20    11    12   ar
    21    11    36    1
    22    12    13   ar
    23    12    37    1
    24    13    14   ar
    25    13    38    1
    26    14    39    1
    27    15    16    2
    28    15    17   am
    29    17    18    1
    30    17    40    1
    31    18    28   ar
    32    18    19   ar
    33    19    20   ar
    34    19    41    1
    35    20    21   ar
    36    20    42    1
    37    21    22   ar
    38    21    43    1
    39    22    23    1
    40    22    28   ar
    41    23    27    1
    42    23    24    2
    43    24    25    1
    44    25    26    1
    45    25    44    1
    46    26    27    2
    47    26    45    1
    48    28    46    1
@<TRIPOS>SUBSTRUCTURE
     1 ZINC000114394234        1 TEMP              0 ****  ****    0 ROOT


##########                                Name:    ZINC000637608314
##########                DOCK_Rotatable_Bonds:                   9
##########                         Heavy_Atoms:                  28
##########                    Molecular_Weight:             387.479
##########                DOCK_Rotatable_Bonds:                   9
##########                       Formal_Charge:           0.0499991
##########                     HBond_Acceptors:                   7
##########                        HBond_Donors:                   2
##########                         Heavy_Atoms:                  28
##########                          Grid_Score:          -30.682331
##########                     Grid_vdw_energy:          -29.318533
##########                      Grid_es_energy:           -1.363799
##########           Internal_energy_repulsive:           18.257544

@<TRIPOS>MOLECULE
ZINC000637608314
 57 59 1 0 0
SMALL
USER_CHARGES


@<TRIPOS>ATOM
      1 C1         -6.4831    3.0061   51.2095 C.3     1  ZINC000637608314   -0.1400
      2 C2         -6.2267    2.0855   52.4044 C.3     1  ZINC000637608314   -0.0400
      3 C3         -5.3349    0.9211   51.9690 C.3     1  ZINC000637608314   -0.1500
      4 C4         -5.5300    2.8739   53.5153 C.3     1  ZINC000637608314   -0.1500
      5 C5         -7.5388    1.5493   52.9161 C.2     1  ZINC000637608314    0.1900
      6 C6         -8.4906    2.4091   53.3483 C.2     1  ZINC000637608314   -0.2400
      7 C7         -9.7137    1.9170   53.8254 C.2     1  ZINC000637608314    0.0200
      8 C8         -9.9276    0.5702   53.8473 C.2     1  ZINC000637608314   -0.2400
      9 C9        -11.2335    0.0148   54.3548 C.3     1  ZINC000637608314    0.2100
     10 N10       -11.0739   -0.4140   55.7464 N.am    1  ZINC000637608314   -0.7300
     11 C11       -12.1199   -0.3542   56.5942 C.2     1  ZINC000637608314    0.7100
     12 O12       -13.1956    0.0571   56.2044 O.2     1  ZINC000637608314   -0.5900
     13 N13       -11.9735   -0.7502   57.8741 N.am    1  ZINC000637608314   -0.6200
     14 C14       -13.1109   -0.6868   58.7952 C.3     1  ZINC000637608314    0.2000
     15 C15       -13.9537   -1.9263   58.6388 C.2     1  ZINC000637608314   -0.0400
     16 C16       -14.0189   -2.6998   57.5401 C.2     1  ZINC000637608314   -0.1900
     17 C17       -14.9245   -3.7463   57.8292 C.2     1  ZINC000637608314   -0.2200
     18 C18       -15.3585   -3.5499   59.0872 C.2     1  ZINC000637608314   -0.0300
     19 O19       -14.7628   -2.4492   59.5745 O.3     1  ZINC000637608314   -0.1700
     20 C20       -10.6768   -1.2440   58.3443 C.3     1  ZINC000637608314    0.1300
     21 C21        -9.9910   -0.1611   59.1795 C.3     1  ZINC000637608314    0.0700
     22 H22       -10.7361    0.3918   59.7515 H       1  ZINC000637608314    0.0900
     23 C23        -9.2192    0.8039   58.2541 C.3     1  ZINC000637608314   -0.1500
     24 C24        -7.9262    1.0789   59.0693 C.3     1  ZINC000637608314   -0.1600
     25 C25        -7.7186   -0.2912   59.7624 C.3     1  ZINC000637608314    0.0500
     26 O26        -9.0426   -0.7615   60.0694 O.3     1  ZINC000637608314   -0.3800
     27 C27        -8.9178   -0.2943   53.3911 C.2     1  ZINC000637608314    0.5300
     28 O28        -9.0963   -1.5017   53.4047 O.2     1  ZINC000637608314   -0.5400
     29 N29        -7.7558    0.2092   52.9334 N.am    1  ZINC000637608314   -0.6000
     30 H30        -6.9794    2.4445   50.4181 H       1  ZINC000637608314    0.0700
     31 H31        -7.1184    3.8356   51.5198 H       1  ZINC000637608314    0.0700
     32 H32        -5.5340    3.3940   50.8395 H       1  ZINC000637608314    0.0700
     33 H33        -4.3858    1.3090   51.5989 H       1  ZINC000637608314    0.0700
     34 H34        -5.1521    0.2653   52.8202 H       1  ZINC000637608314    0.0600
     35 H35        -5.8312    0.3595   51.1775 H       1  ZINC000637608314    0.0700
     36 H36        -6.1654    3.7034   53.8255 H       1  ZINC000637608314    0.0700
     37 H37        -5.3473    2.2180   54.3665 H       1  ZINC000637608314    0.0600
     38 H38        -4.5809    3.2617   53.1452 H       1  ZINC000637608314    0.0700
     39 H39        -8.3080    3.4733   53.3258 H       1  ZINC000637608314    0.1500
     40 H40       -10.4777    2.5971   54.1723 H       1  ZINC000637608314    0.1400
     41 H41       -12.0024    0.7853   54.2979 H       1  ZINC000637608314    0.0800
     42 H42       -11.5277   -0.8381   53.7432 H       1  ZINC000637608314    0.0800
     43 H43       -10.2153   -0.7410   56.0577 H       1  ZINC000637608314    0.4000
     44 H44       -12.7454   -0.6230   59.8202 H       1  ZINC000637608314    0.1200
     45 H45       -13.7131    0.1930   58.5689 H       1  ZINC000637608314    0.0900
     46 H46       -13.4828   -2.5497   56.6147 H       1  ZINC000637608314    0.1500
     47 H47       -15.2127   -4.5492   57.1670 H       1  ZINC000637608314    0.1500
     48 H48       -16.0634   -4.1735   59.6167 H       1  ZINC000637608314    0.2000
     49 H49       -10.8269   -2.1338   58.9557 H       1  ZINC000637608314    0.0800
     50 H50       -10.0506   -1.4932   57.4876 H       1  ZINC000637608314    0.1000
     51 H51        -8.9841    0.3249   57.3036 H       1  ZINC000637608314    0.0800
     52 H52        -9.7819    1.7241   58.0972 H       1  ZINC000637608314    0.0900
     53 H53        -7.0903    1.3171   58.4114 H       1  ZINC000637608314    0.0800
     54 H54        -8.0847    1.8699   59.8022 H       1  ZINC000637608314    0.0800
     55 H55        -7.2171   -0.9846   59.0872 H       1  ZINC000637608314    0.0600
     56 H56        -7.1399   -0.1682   60.6779 H       1  ZINC000637608314    0.0800
     57 H57        -7.0629   -0.3928   52.6196 H       1  ZINC000637608314    0.4100
@<TRIPOS>BOND
     1     1     2    1
     2     1    30    1
     3     1    31    1
     4     1    32    1
     5     2     3    1
     6     2     4    1
     7     2     5    1
     8     3    33    1
     9     3    34    1
    10     3    35    1
    11     4    36    1
    12     4    37    1
    13     4    38    1
    14     5    29    1
    15     5     6    2
    16     6     7    1
    17     6    39    1
    18     7     8    2
    19     7    40    1
    20     8     9    1
    21     8    27    1
    22     9    10    1
    23     9    41    1
    24     9    42    1
    25    10    11   am
    26    10    43    1
    27    11    12    2
    28    11    13   am
    29    13    14    1
    30    13    20    1
    31    14    15    1
    32    14    44    1
    33    14    45    1
    34    15    19    1
    35    15    16    2
    36    16    17    1
    37    16    46    1
    38    17    18    2
    39    17    47    1
    40    18    19    1
    41    18    48    1
    42    20    21    1
    43    20    49    1
    44    20    50    1
    45    21    22    1
    46    21    26    1
    47    21    23    1
    48    23    24    1
    49    23    51    1
    50    23    52    1
    51    24    25    1
    52    24    53    1
    53    24    54    1
    54    25    26    1
    55    25    55    1
    56    25    56    1
    57    27    28    2
    58    27    29   am
    59    29    57    1
@<TRIPOS>SUBSTRUCTURE
     1 ZINC000637608314        1 TEMP              0 ****  ****    0 ROOT


##########                                Name:    ZINC000032503012
##########                DOCK_Rotatable_Bonds:                   8
##########                         Heavy_Atoms:                  27
##########                    Molecular_Weight:             390.503
##########                DOCK_Rotatable_Bonds:                   8
##########                       Formal_Charge:           0.0099995
##########                     HBond_Acceptors:                   7
##########                        HBond_Donors:                   2
##########                         Heavy_Atoms:                  27
##########                          Grid_Score:          -30.679417
##########                     Grid_vdw_energy:          -29.981293
##########                      Grid_es_energy:           -0.698123
##########           Internal_energy_repulsive:           39.760914

@<TRIPOS>MOLECULE
ZINC000032503012
 53 54 1 0 0
SMALL
USER_CHARGES


@<TRIPOS>ATOM
      1 C1         -7.4248    0.0823   66.7551 C.3     1  ZINC000032503012   -0.1200
      2 C2         -7.5108    0.7645   65.4141 C.ar    1  ZINC000032503012   -0.0500
      3 C3         -6.9336    2.0077   65.2336 C.ar    1  ZINC000032503012   -0.1600
      4 C4         -7.0107    2.6365   64.0043 C.ar    1  ZINC000032503012   -0.0700
      5 C5         -7.6650    2.0234   62.9536 C.ar    1  ZINC000032503012   -0.1500
      6 C6         -8.2452    0.7758   63.1324 C.ar    1  ZINC000032503012    0.1300
      7 O7         -8.8892    0.1704   62.1000 O.3     1  ZINC000032503012   -0.2800
      8 C8         -8.5883    0.6383   60.7839 C.3     1  ZINC000032503012    0.0700
      9 H9         -8.7276    1.7186   60.7416 H       1  ZINC000032503012    0.1100
     10 C10        -7.1367    0.2975   60.4407 C.3     1  ZINC000032503012   -0.1800
     11 C11        -9.5081   -0.0260   59.7921 C.2     1  ZINC000032503012    0.5200
     12 O12        -9.6973    0.4809   58.7066 O.2     1  ZINC000032503012   -0.4900
     13 N13       -10.1205   -1.1834   60.1112 N.am    1  ZINC000032503012   -0.6700
     14 C14       -10.9745   -1.8003   59.1904 C.ar    1  ZINC000032503012    0.1300
     15 C15       -10.4634   -2.3252   58.0109 C.ar    1  ZINC000032503012   -0.0600
     16 C16       -11.3091   -2.9335   57.1039 C.ar    1  ZINC000032503012   -0.1200
     17 C17       -12.6633   -3.0196   57.3691 C.ar    1  ZINC000032503012   -0.0300
     18 C18       -13.1756   -2.4974   58.5428 C.ar    1  ZINC000032503012   -0.6600
     19 S19       -14.9021   -2.6097   58.8762 S.o2    1  ZINC000032503012    2.7000
     20 O20       -15.2265   -3.9930   58.8513 O.2     1  ZINC000032503012   -0.9600
     21 O21       -15.1494   -1.7736   59.9983 O.2     1  ZINC000032503012   -0.9500
     22 N22       -15.6944   -1.9205   57.5958 N.am    1  ZINC000032503012   -1.1100
     23 C23       -15.4543   -0.5158   57.2560 C.3     1  ZINC000032503012    0.1700
     24 C24       -14.1349   -0.3945   56.4909 C.3     1  ZINC000032503012   -0.1900
     25 C25       -16.5996    0.0006   56.3828 C.3     1  ZINC000032503012   -0.1500
     26 C26       -15.3777    0.3134   58.5396 C.3     1  ZINC000032503012   -0.1800
     27 C27       -12.3345   -1.8939   59.4568 C.ar    1  ZINC000032503012   -0.0400
     28 C28        -8.1615    0.1447   64.3647 C.ar    1  ZINC000032503012   -0.2100
     29 H29        -6.5226   -0.5280   66.7951 H       1  ZINC000032503012    0.0700
     30 H30        -7.3903    0.8340   67.5437 H       1  ZINC000032503012    0.0700
     31 H31        -8.2994   -0.5526   66.8964 H       1  ZINC000032503012    0.0700
     32 H32        -6.4219    2.4888   66.0540 H       1  ZINC000032503012    0.1300
     33 H33        -6.5594    3.6077   63.8658 H       1  ZINC000032503012    0.1300
     34 H34        -7.7253    2.5150   61.9939 H       1  ZINC000032503012    0.1300
     35 H35        -6.4714    0.7781   61.1581 H       1  ZINC000032503012    0.0800
     36 H36        -6.9974   -0.7826   60.4830 H       1  ZINC000032503012    0.0800
     37 H37        -6.9072    0.6546   59.4368 H       1  ZINC000032503012    0.0800
     38 H38        -9.9692   -1.5888   60.9794 H       1  ZINC000032503012    0.4100
     39 H39        -9.4058   -2.2576   57.8027 H       1  ZINC000032503012    0.1400
     40 H40       -10.9122   -3.3420   56.1863 H       1  ZINC000032503012    0.1400
     41 H41       -13.3224   -3.4955   56.6581 H       1  ZINC000032503012    0.1500
     42 H42       -16.3174   -2.4468   57.0707 H       1  ZINC000032503012    0.4200
     43 H43       -14.1198   -1.1180   55.6758 H       1  ZINC000032503012    0.0700
     44 H44       -14.0418    0.6126   56.0846 H       1  ZINC000032503012    0.0800
     45 H45       -13.3032   -0.5918   57.1673 H       1  ZINC000032503012    0.0700
     46 H46       -17.5395   -0.0858   56.9278 H       1  ZINC000032503012    0.0700
     47 H47       -16.4209    1.0458   56.1301 H       1  ZINC000032503012    0.0700
     48 H48       -16.6541   -0.5901   55.4684 H       1  ZINC000032503012    0.0600
     49 H49       -14.4518    0.0826   59.0666 H       1  ZINC000032503012    0.0900
     50 H50       -15.3982    1.3740   58.2887 H       1  ZINC000032503012    0.0700
     51 H51       -16.2283    0.0745   59.1778 H       1  ZINC000032503012    0.0600
     52 H52       -12.7351   -1.4862   60.3731 H       1  ZINC000032503012    0.1400
     53 H53        -8.6123   -0.8265   64.5064 H       1  ZINC000032503012    0.1300
@<TRIPOS>BOND
     1     1     2    1
     2     1    29    1
     3     1    30    1
     4     1    31    1
     5     2    28   ar
     6     2     3   ar
     7     3     4   ar
     8     3    32    1
     9     4     5   ar
    10     4    33    1
    11     5     6   ar
    12     5    34    1
    13     6     7    1
    14     6    28   ar
    15     7     8    1
    16     8     9    1
    17     8    10    1
    18     8    11    1
    19    10    35    1
    20    10    36    1
    21    10    37    1
    22    11    12    2
    23    11    13   am
    24    13    14    1
    25    13    38    1
    26    14    27   ar
    27    14    15   ar
    28    15    16   ar
    29    15    39    1
    30    16    17   ar
    31    16    40    1
    32    17    18   ar
    33    17    41    1
    34    18    19    1
    35    18    27   ar
    36    19    20    2
    37    19    21    2
    38    19    22   am
    39    22    23    1
    40    22    42    1
    41    23    24    1
    42    23    25    1
    43    23    26    1
    44    24    43    1
    45    24    44    1
    46    24    45    1
    47    25    46    1
    48    25    47    1
    49    25    48    1
    50    26    49    1
    51    26    50    1
    52    26    51    1
    53    27    52    1
    54    28    53    1
@<TRIPOS>SUBSTRUCTURE
     1 ZINC000032503012        1 TEMP              0 ****  ****    0 ROOT


##########                                Name:    ZINC001342153661
##########                DOCK_Rotatable_Bonds:                   8
##########                         Heavy_Atoms:                  29
##########                    Molecular_Weight:             395.548
##########                DOCK_Rotatable_Bonds:                   8
##########                       Formal_Charge:          -0.0400005
##########                     HBond_Acceptors:                   6
##########                        HBond_Donors:                   1
##########                         Heavy_Atoms:                  29
##########                          Grid_Score:          -30.671181
##########                     Grid_vdw_energy:          -30.374475
##########                      Grid_es_energy:           -0.296705
##########           Internal_energy_repulsive:           17.606344

@<TRIPOS>MOLECULE
ZINC001342153661
 62 65 1 0 0
SMALL
USER_CHARGES


@<TRIPOS>ATOM
      1 C1        -13.3000    0.9319   62.3777 C.2     1  ZINC001342153661   -0.1400
      2 C2        -14.0875    0.8775   61.3322 C.2     1  ZINC001342153661   -0.1600
      3 C3        -15.5808    0.9788   61.5076 C.3     1  ZINC001342153661   -0.1200
      4 C4        -13.5001    0.7133   59.9542 C.3     1  ZINC001342153661    0.1500
      5 N5        -12.7269   -0.5296   59.8977 N.pl3   1  ZINC001342153661   -0.4700
      6 C6        -13.2104   -1.7948   59.7088 C.2     1  ZINC001342153661    0.1800
      7 C7        -14.6547   -2.1795   59.5171 C.3     1  ZINC001342153661   -0.0600
      8 C8        -14.7719   -3.1515   58.3413 C.3     1  ZINC001342153661    0.1600
      9 H9        -13.7980   -3.5979   58.1405 H       1  ZINC001342153661    0.1000
     10 O10       -15.7095   -4.1801   58.6654 O.3     1  ZINC001342153661   -0.5400
     11 C11       -15.2451   -2.4072   57.1194 C.ar    1  ZINC001342153661   -0.1700
     12 C12       -14.6534   -1.2077   56.7554 C.ar    1  ZINC001342153661   -0.0600
     13 C13       -15.1211   -0.5579   55.6231 C.ar    1  ZINC001342153661   -0.1700
     14 C14       -16.1541   -1.1238   54.9004 C.ar    1  ZINC001342153661    0.1000
     15 N15       -16.6933   -2.2671   55.2764 N.ar    1  ZINC001342153661   -0.4800
     16 C16       -16.2706   -2.9150   56.3441 C.ar    1  ZINC001342153661    0.1100
     17 N17       -12.1906   -2.6056   59.7245 N.2     1  ZINC001342153661   -0.2700
     18 N18       -11.1043   -1.9442   59.9090 N.2     1  ZINC001342153661   -0.3200
     19 C19       -11.3743   -0.6646   60.0168 C.2     1  ZINC001342153661    0.3600
     20 N20       -10.4596    0.3561   60.2216 N.3     1  ZINC001342153661   -0.4500
     21 C21        -9.7180    0.6532   58.9895 C.3     1  ZINC001342153661    0.0500
     22 C22        -8.8251    1.8760   59.2123 C.3     1  ZINC001342153661   -0.1200
     23 C23        -7.8520    1.5893   60.3592 C.3     1  ZINC001342153661   -0.1200
     24 C24        -8.6491    1.2354   61.6178 C.3     1  ZINC001342153661   -0.0800
     25 H25        -9.2648    2.0861   61.9098 H       1  ZINC001342153661    0.0800
     26 C26        -7.6836    0.8899   62.7534 C.3     1  ZINC001342153661   -0.0800
     27 C27        -6.9811    2.1678   63.2753 C.3     1  ZINC001342153661   -0.1200
     28 C28        -6.5676    1.7676   64.7133 C.3     1  ZINC001342153661   -0.1300
     29 C29        -7.7482    0.9153   65.2231 C.3     1  ZINC001342153661   -0.1300
     30 C30        -8.4578    0.3573   63.9768 C.3     1  ZINC001342153661   -0.1200
     31 C31        -9.5471    0.0312   61.3253 C.3     1  ZINC001342153661    0.0800
     32 H32       -13.7210    1.0495   63.3653 H       1  ZINC001342153661    0.1000
     33 H33       -12.2301    0.8548   62.2524 H       1  ZINC001342153661    0.1100
     34 H34       -15.8728    2.0285   61.5370 H       1  ZINC001342153661    0.0700
     35 H35       -16.0790    0.4864   60.6726 H       1  ZINC001342153661    0.0600
     36 H36       -15.8709    0.4948   62.4402 H       1  ZINC001342153661    0.0700
     37 H37       -14.3038    0.6750   59.2188 H       1  ZINC001342153661    0.1000
     38 H38       -12.8469    1.5578   59.7347 H       1  ZINC001342153661    0.1000
     39 H39       -15.0264   -2.6585   60.4229 H       1  ZINC001342153661    0.1100
     40 H40       -15.2444   -1.2864   59.3103 H       1  ZINC001342153661    0.1000
     41 H41       -15.9331   -4.7569   57.9221 H       1  ZINC001342153661    0.3800
     42 H42       -13.8476   -0.7888   57.3400 H       1  ZINC001342153661    0.1300
     43 H43       -14.6838    0.3788   55.3103 H       1  ZINC001342153661    0.1400
     44 H44       -16.5241   -0.6238   54.0175 H       1  ZINC001342153661    0.1600
     45 H45       -16.7370   -3.8490   56.6211 H       1  ZINC001342153661    0.1500
     46 H46        -9.0999   -0.2039   58.7219 H       1  ZINC001342153661    0.0500
     47 H47       -10.4216    0.8593   58.1829 H       1  ZINC001342153661    0.0700
     48 H48        -8.2631    2.0868   58.3023 H       1  ZINC001342153661    0.0800
     49 H49        -9.4436    2.7368   59.4664 H       1  ZINC001342153661    0.0700
     50 H50        -7.2072    0.7530   60.0893 H       1  ZINC001342153661    0.0600
     51 H51        -7.2433    2.4731   60.5500 H       1  ZINC001342153661    0.0700
     52 H52        -6.9488    0.1578   62.4186 H       1  ZINC001342153661    0.0800
     53 H53        -6.1037    2.4002   62.6717 H       1  ZINC001342153661    0.0700
     54 H54        -7.6734    3.0096   63.2927 H       1  ZINC001342153661    0.0700
     55 H55        -5.6508    1.1781   64.6965 H       1  ZINC001342153661    0.0600
     56 H56        -6.4409    2.6541   65.3346 H       1  ZINC001342153661    0.0600
     57 H57        -7.3785    0.0964   65.8402 H       1  ZINC001342153661    0.0600
     58 H58        -8.4357    1.5358   65.7978 H       1  ZINC001342153661    0.0600
     59 H59        -9.4898    0.7070   63.9469 H       1  ZINC001342153661    0.0600
     60 H60        -8.4325   -0.7323   63.9894 H       1  ZINC001342153661    0.0600
     61 H61       -10.1264   -0.2144   62.2153 H       1  ZINC001342153661    0.0900
     62 H62        -8.9298   -0.8230   61.0468 H       1  ZINC001342153661    0.0500
@<TRIPOS>BOND
     1     1     2    2
     2     1    32    1
     3     1    33    1
     4     2     3    1
     5     2     4    1
     6     3    34    1
     7     3    35    1
     8     3    36    1
     9     4     5    1
    10     4    37    1
    11     4    38    1
    12     5    19    1
    13     5     6    1
    14     6     7    1
    15     6    17    2
    16     7     8    1
    17     7    39    1
    18     7    40    1
    19     8     9    1
    20     8    10    1
    21     8    11    1
    22    10    41    1
    23    11    16   ar
    24    11    12   ar
    25    12    13   ar
    26    12    42    1
    27    13    14   ar
    28    13    43    1
    29    14    15   ar
    30    14    44    1
    31    15    16   ar
    32    16    45    1
    33    17    18    1
    34    18    19    2
    35    19    20    1
    36    20    31    1
    37    20    21    1
    38    21    22    1
    39    21    46    1
    40    21    47    1
    41    22    23    1
    42    22    48    1
    43    22    49    1
    44    23    24    1
    45    23    50    1
    46    23    51    1
    47    24    25    1
    48    24    26    1
    49    24    31    1
    50    26    30    1
    51    26    27    1
    52    26    52    1
    53    27    28    1
    54    27    53    1
    55    27    54    1
    56    28    29    1
    57    28    55    1
    58    28    56    1
    59    29    30    1
    60    29    57    1
    61    29    58    1
    62    30    59    1
    63    30    60    1
    64    31    61    1
    65    31    62    1
@<TRIPOS>SUBSTRUCTURE
     1 ZINC001342153661        1 TEMP              0 ****  ****    0 ROOT


##########                                Name:     oleObject27.pdb
##########                DOCK_Rotatable_Bonds:                   9
##########                         Heavy_Atoms:                  35
##########                    Molecular_Weight:             513.466
##########                DOCK_Rotatable_Bonds:                   9
##########                       Formal_Charge:         0.000199873
##########                     HBond_Acceptors:                   8
##########                        HBond_Donors:                   1
##########                         Heavy_Atoms:                  35
##########                          Grid_Score:          -30.670261
##########                     Grid_vdw_energy:          -30.470058
##########                      Grid_es_energy:           -0.200203
##########           Internal_energy_repulsive:           27.614609

@<TRIPOS>MOLECULE
oleObject27.pdb
 65 68 1 0 0
SMALL
NO_CHARGES


@<TRIPOS>ATOM
      1 C         -15.4494   -1.0653   53.3149 C.ar    1  UNL        -0.0620
      2 C         -15.6199   -1.2091   54.6994 C.ar    1  UNL        -0.0590
      3 C         -14.5799   -0.8803   55.5906 C.ar    1  UNL        -0.0456
      4 C         -13.3498   -0.3918   55.0839 C.ar    1  UNL        -0.0187
      5 C         -13.1894   -0.2629   53.6867 C.ar    1  UNL        -0.0565
      6 C         -14.2312   -0.5947   52.8081 C.ar    1  UNL        -0.0619
      7 C         -12.1935   -0.0212   56.0260 C.3     1  UNL         0.0921
      8 C         -11.4209   -1.2469   56.5236 C.ar    1  UNL         0.0681
      9 C         -10.4592   -1.9100   55.7206 C.ar    1  UNL        -0.0272
     10 C          -9.8057   -3.0366   56.2546 C.ar    1  UNL        -0.0559
     11 C         -10.1329   -3.4674   57.5485 C.ar    1  UNL        -0.0435
     12 C         -11.1093   -2.7602   58.2659 C.ar    1  UNL         0.0272
     13 N         -11.7397   -1.6815   57.7646 N.ar    1  UNL        -0.2587
     14 C         -10.1240   -1.4527   54.3056 C.3     1  UNL        -0.0379
     15 N         -11.2693    0.9605   55.4399 N.am    1  UNL        -0.2865
     16 C         -11.2098    2.2893   55.8192 C.2     1  UNL         0.3014
     17 O         -11.9410    2.7453   56.6825 O.2     1  UNL        -0.2541
     18 N         -10.2651    3.0656   55.1452 N.am    1  UNL        -0.2833
     19 C         -10.0737    4.5133   55.4339 C.3     1  UNL         0.0284
     20 C          -9.2655    5.2912   54.3670 C.3     1  UNL         0.0142
     21 N          -8.0468    4.5763   53.9494 N.4     1  UNL        -0.2979
     22 C          -8.4199    3.2614   53.3917 C.3     1  UNL         0.0142
     23 C          -9.1661    2.3812   54.4207 C.3     1  UNL         0.0284
     24 C          -6.9962    4.5590   54.9956 C.3     1  UNL         0.0223
     25 C          -5.8057    3.6429   54.6476 C.3     1  UNL         0.0661
     26 O          -5.3062    4.0482   53.3610 O.3     1  UNL        -0.3432
     27 C          -4.0733    3.6699   52.8654 C.ar    1  UNL         0.0937
     28 C          -2.8728    4.2611   53.3138 C.ar    1  UNL        -0.0288
     29 C          -1.6397    3.8467   52.7833 C.ar    1  UNL        -0.0408
     30 C          -1.5974    2.8417   51.8040 C.ar    1  UNL         0.0422
     31 C          -2.7870    2.2486   51.3531 C.ar    1  UNL        -0.0221
     32 C          -4.0215    2.6608   51.8819 C.ar    1  UNL         0.0723
     33 CL         -5.4893    1.8999   51.2967 Cl      1  UNL        -0.0814
     34 CL         -0.0592    2.3275   51.1450 Cl      1  UNL        -0.0843
     35 C         -14.8125   -1.0712   57.0857 C.3     1  UNL        -0.0394
     36 H         -16.2578   -1.3235   52.6369 H       1  UNL         0.0623
     37 H         -16.5667   -1.5814   55.0803 H       1  UNL         0.0626
     38 H         -12.2497    0.0900   53.2723 H       1  UNL         0.0627
     39 H         -14.0925   -0.4888   51.7361 H       1  UNL         0.0623
     40 H         -12.6400    0.4727   56.8940 H       1  UNL         0.0625
     41 H          -9.0594   -3.5731   55.6755 H       1  UNL         0.0627
     42 H          -9.6452   -4.3341   57.9846 H       1  UNL         0.0639
     43 H         -11.3960   -3.0653   59.2716 H       1  UNL         0.0840
     44 H         -11.0301   -1.3670   53.6925 H       1  UNL         0.0280
     45 H          -9.4539   -2.1592   53.7999 H       1  UNL         0.0280
     46 H          -9.6254   -0.4756   54.3148 H       1  UNL         0.0280
     47 H         -10.6705    0.6547   54.6858 H       1  UNL         0.1521
     48 H          -9.5619    4.6004   56.4009 H       1  UNL         0.0484
     49 H         -11.0493    5.0059   55.5283 H       1  UNL         0.0484
     50 H          -9.0116    6.2864   54.7537 H       1  UNL         0.0447
     51 H          -9.9090    5.4391   53.4899 H       1  UNL         0.0447
     52 H          -7.5402    2.7250   53.0175 H       1  UNL         0.0447
     53 H          -9.0847    3.4176   52.5322 H       1  UNL         0.0447
     54 H          -8.4475    2.0146   55.1645 H       1  UNL         0.0484
     55 H          -9.5683    1.5062   53.8940 H       1  UNL         0.0484
     56 H          -7.4165    4.2414   55.9582 H       1  UNL         0.0455
     57 H          -6.6074    5.5769   55.1286 H       1  UNL         0.0455
     58 H          -6.1439    2.5994   54.6141 H       1  UNL         0.0586
     59 H          -5.0176    3.7432   55.4037 H       1  UNL         0.0586
     60 H          -2.8818    5.0390   54.0702 H       1  UNL         0.0652
     61 H          -0.7184    4.3049   53.1318 H       1  UNL         0.0639
     62 H          -2.7532    1.4710   50.5953 H       1  UNL         0.0655
     63 H         -15.7783   -1.5506   57.2884 H       1  UNL         0.0280
     64 H         -14.8090   -0.1082   57.6114 H       1  UNL         0.0280
     65 H         -14.0361   -1.7068   57.5290 H       1  UNL         0.0280
@<TRIPOS>BOND
     1     1     2   ar
     2     1     6   ar
     3     1    36    1
     4     2     3   ar
     5     2    37    1
     6     3     4   ar
     7     3    35    1
     8     4     5   ar
     9     4     7    1
    10     5     6   ar
    11     5    38    1
    12     6    39    1
    13     7     8    1
    14     7    15    1
    15     7    40    1
    16     8     9   ar
    17     8    13   ar
    18     9    10   ar
    19     9    14    1
    20    10    11   ar
    21    10    41    1
    22    11    12   ar
    23    11    42    1
    24    12    13   ar
    25    12    43    1
    26    14    44    1
    27    14    45    1
    28    14    46    1
    29    15    16   am
    30    15    47    1
    31    16    17    2
    32    16    18   am
    33    18    19    1
    34    18    23    1
    35    19    20    1
    36    19    48    1
    37    19    49    1
    38    20    21    1
    39    20    50    1
    40    20    51    1
    41    21    22    1
    42    21    24    1
    43    22    23    1
    44    22    52    1
    45    22    53    1
    46    23    54    1
    47    23    55    1
    48    24    25    1
    49    24    56    1
    50    24    57    1
    51    25    26    1
    52    25    58    1
    53    25    59    1
    54    26    27    1
    55    27    28   ar
    56    27    32   ar
    57    28    29   ar
    58    28    60    1
    59    29    30   ar
    60    29    61    1
    61    30    31   ar
    62    30    34    1
    63    31    32   ar
    64    31    62    1
    65    32    33    1
    66    35    63    1
    67    35    64    1
    68    35    65    1
@<TRIPOS>SUBSTRUCTURE
     1 UNL         1 TEMP              0 ****  ****    0 ROOT


##########                                Name:    ZINC001109848453
##########                DOCK_Rotatable_Bonds:                   8
##########                         Heavy_Atoms:                  24
##########                    Molecular_Weight:             328.337
##########                DOCK_Rotatable_Bonds:                   8
##########                       Formal_Charge:          0.00999966
##########                     HBond_Acceptors:                  11
##########                        HBond_Donors:                   2
##########                         Heavy_Atoms:                  24
##########                          Grid_Score:          -30.651468
##########                     Grid_vdw_energy:          -28.670259
##########                      Grid_es_energy:           -1.981209
##########           Internal_energy_repulsive:            5.494967

@<TRIPOS>MOLECULE
ZINC001109848453
 40 43 1 0 0
SMALL
USER_CHARGES


@<TRIPOS>ATOM
      1 O1          2.8969    0.6802   41.8399 O.2     1  ZINC001109848453   -0.5000
      2 C2          1.8845    0.8138   42.4942 C.2     1  ZINC001109848453    0.5000
      3 C3          0.5664    0.3249   41.9512 C.3     1  ZINC001109848453    0.1100
      4 N4         -0.0700    1.3940   41.1779 N.pl3   1  ZINC001109848453   -0.3700
      5 C5         -0.9569    1.2472   40.1785 C.2     1  ZINC001109848453    0.2600
      6 N6         -1.2859    2.4385   39.7493 N.2     1  ZINC001109848453   -0.5400
      7 C7         -0.6325    3.3666   40.4471 C.2     1  ZINC001109848453    0.2000
      8 N8          0.1208    2.7763   41.3374 N.2     1  ZINC001109848453   -0.2900
      9 N9          1.9390    1.3944   43.7092 N.am    1  ZINC001109848453   -0.7300
     10 C10         3.2203    1.8697   44.2370 C.3     1  ZINC001109848453    0.1700
     11 H11         4.0305    1.5103   43.6025 H       1  ZINC001109848453    0.1000
     12 C12         3.4137    1.3407   45.6596 C.3     1  ZINC001109848453    0.1200
     13 N13         3.8789   -0.0475   45.6053 N.pl3   1  ZINC001109848453   -0.6800
     14 C14         3.9107   -0.8128   46.7593 C.2     1  ZINC001109848453    0.4900
     15 N15         3.6788   -0.2574   47.9329 N.2     1  ZINC001109848453   -0.5300
     16 C16         3.7052   -0.9811   49.0548 C.2     1  ZINC001109848453    0.1400
     17 C17         3.9694   -2.3038   49.0330 C.2     1  ZINC001109848453   -0.0500
     18 N18         4.2172   -2.9313   47.8439 N.pl3   1  ZINC001109848453   -0.1800
     19 N19         4.4920   -4.1421   47.5095 N.2     1  ZINC001109848453   -0.1000
     20 N20         4.6379   -4.2075   46.2315 N.2     1  ZINC001109848453   -0.0400
     21 N21         4.4614   -3.0419   45.7069 N.2     1  ZINC001109848453   -0.2600
     22 C22         4.1864   -2.1988   46.6893 C.2     1  ZINC001109848453    0.1000
     23 C23         3.2280    3.3996   44.2565 C.3     1  ZINC001109848453   -0.1800
     24 C24         4.5203    4.1049   43.8398 C.3     1  ZINC001109848453   -0.1700
     25 C25         3.3050    4.1228   42.9104 C.3     1  ZINC001109848453   -0.1700
     26 H26         0.7364   -0.5379   41.3069 H       1  ZINC001109848453    0.1300
     27 H27        -0.0834    0.0383   42.7781 H       1  ZINC001109848453    0.1200
     28 H28        -1.3321    0.3094   39.7960 H       1  ZINC001109848453    0.2200
     29 H29        -0.7151    4.4338   40.3032 H       1  ZINC001109848453    0.2200
     30 H30         1.1299    1.4977   44.2342 H       1  ZINC001109848453    0.4000
     31 H31         4.1531    1.9517   46.1771 H       1  ZINC001109848453    0.1000
     32 H32         2.4658    1.3855   46.1958 H       1  ZINC001109848453    0.0900
     33 H33         4.1648   -0.4305   44.7612 H       1  ZINC001109848453    0.4200
     34 H34         3.5111   -0.4969   50.0005 H       1  ZINC001109848453    0.2000
     35 H35         3.9855   -2.8669   49.9545 H       1  ZINC001109848453    0.1900
     36 H36         2.6325    3.8627   45.0432 H       1  ZINC001109848453    0.1100
     37 H37         4.7753    5.0323   44.3526 H       1  ZINC001109848453    0.1000
     38 H38         5.3649    3.4790   43.5519 H       1  ZINC001109848453    0.1000
     39 H39         3.3502    3.5086   42.0109 H       1  ZINC001109848453    0.1200
     40 H40         2.7607    5.0619   42.8116 H       1  ZINC001109848453    0.0900
@<TRIPOS>BOND
     1     1     2    2
     2     2     3    1
     3     2     9   am
     4     3     4    1
     5     3    26    1
     6     3    27    1
     7     4     8    1
     8     4     5    1
     9     5     6    2
    10     5    28    1
    11     6     7    1
    12     7     8    2
    13     7    29    1
    14     9    10    1
    15     9    30    1
    16    10    11    1
    17    10    12    1
    18    10    23    1
    19    12    13    1
    20    12    31    1
    21    12    32    1
    22    13    14    1
    23    13    33    1
    24    14    22    1
    25    14    15    2
    26    15    16    1
    27    16    17    2
    28    16    34    1
    29    17    18    1
    30    17    35    1
    31    18    22    1
    32    18    19    1
    33    19    20    2
    34    20    21    1
    35    21    22    2
    36    23    25    1
    37    23    24    1
    38    23    36    1
    39    24    25    1
    40    24    37    1
    41    24    38    1
    42    25    39    1
    43    25    40    1
@<TRIPOS>SUBSTRUCTURE
     1 ZINC001109848453        1 TEMP              0 ****  ****    0 ROOT


##########                                Name:    ZINC000822449555
##########                DOCK_Rotatable_Bonds:                   5
##########                         Heavy_Atoms:                  27
##########                    Molecular_Weight:             366.383
##########                DOCK_Rotatable_Bonds:                   5
##########                       Formal_Charge:          -0.0100009
##########                     HBond_Acceptors:                  10
##########                        HBond_Donors:                   2
##########                         Heavy_Atoms:                  27
##########                          Grid_Score:          -30.628979
##########                     Grid_vdw_energy:          -29.855911
##########                      Grid_es_energy:           -0.773067
##########           Internal_energy_repulsive:            7.245857

@<TRIPOS>MOLECULE
ZINC000822449555
 45 48 1 0 0
SMALL
USER_CHARGES


@<TRIPOS>ATOM
      1 C1        -10.7401    0.4067   56.9302 C.3     1  ZINC000822449555   -0.1100
      2 C2        -11.6874   -0.0572   55.8538 C.ar    1  ZINC000822449555    0.1400
      3 N3        -12.8570   -0.5666   56.1897 N.ar    1  ZINC000822449555   -0.5000
      4 C4        -13.7203   -0.9868   55.2782 C.ar    1  ZINC000822449555    0.3000
      5 N5        -14.9429   -1.5172   55.6811 N.3     1  ZINC000822449555   -0.4700
      6 C6        -15.9087   -0.4491   55.9773 C.3     1  ZINC000822449555    0.0200
      7 C7        -17.2530   -1.0751   56.3575 C.3     1  ZINC000822449555    0.0600
      8 O8        -17.0653   -1.9581   57.4667 O.3     1  ZINC000822449555   -0.3800
      9 C9        -16.1313   -3.0111   57.2128 C.3     1  ZINC000822449555    0.0600
     10 C10       -14.7756   -2.4046   56.8412 C.3     1  ZINC000822449555    0.0300
     11 C11       -13.4199   -0.9038   53.9229 C.ar    1  ZINC000822449555   -0.1700
     12 C12       -12.2029   -0.3753   53.5333 C.ar    1  ZINC000822449555   -0.0500
     13 C13       -11.3218    0.0614   54.5213 C.ar    1  ZINC000822449555    0.0600
     14 N14       -10.0778    0.6036   54.1727 N.am    1  ZINC000822449555   -0.6600
     15 C15        -9.1144   -0.1911   53.6661 C.2     1  ZINC000822449555    0.5700
     16 O16        -9.3246   -1.3787   53.5117 O.2     1  ZINC000822449555   -0.5100
     17 C17        -7.8030    0.3806   53.2988 C.ar    1  ZINC000822449555   -0.1800
     18 C18        -7.3216    1.5273   53.9450 C.ar    1  ZINC000822449555   -0.0100
     19 C19        -6.0900    2.0252   53.5675 C.ar    1  ZINC000822449555   -0.1300
     20 C20        -5.3719    1.3761   52.5642 C.ar    1  ZINC000822449555    0.2300
     21 C21        -4.0483    1.9043   52.1527 C.2     1  ZINC000822449555    0.2100
     22 N22        -3.4281    2.9540   52.6553 N.2     1  ZINC000822449555   -0.2500
     23 N23        -2.3071    3.0846   52.0334 N.pl3   1  ZINC000822449555   -0.2200
     24 N24        -2.1969    2.1517   51.1532 N.2     1  ZINC000822449555   -0.0400
     25 N25        -3.2467    1.4038   51.2013 N.2     1  ZINC000822449555   -0.2500
     26 N26        -5.8569    0.2911   51.9724 N.ar    1  ZINC000822449555   -0.4500
     27 C27        -7.0226   -0.2174   52.3066 C.ar    1  ZINC000822449555    0.1400
     28 H28       -10.9336    1.4551   57.1573 H       1  ZINC000822449555    0.0800
     29 H29       -10.8887   -0.1931   57.8282 H       1  ZINC000822449555    0.0800
     30 H30        -9.7129    0.2937   56.5836 H       1  ZINC000822449555    0.0700
     31 H31       -15.5407    0.1546   56.8069 H       1  ZINC000822449555    0.0600
     32 H32       -16.0364    0.1805   55.0967 H       1  ZINC000822449555    0.1000
     33 H33       -17.9557   -0.2888   56.6332 H       1  ZINC000822449555    0.1100
     34 H34       -17.6467   -1.6350   55.5091 H       1  ZINC000822449555    0.0600
     35 H35       -16.0228   -3.6248   58.1069 H       1  ZINC000822449555    0.1000
     36 H36       -16.4924   -3.6271   56.3893 H       1  ZINC000822449555    0.0600
     37 H37       -14.0762   -3.2024   56.5913 H       1  ZINC000822449555    0.1000
     38 H38       -14.3895   -1.8322   57.6846 H       1  ZINC000822449555    0.0600
     39 H39       -14.1282   -1.2482   53.1838 H       1  ZINC000822449555    0.1400
     40 H40       -11.9427   -0.2990   52.4878 H       1  ZINC000822449555    0.1500
     41 H41        -9.9100    1.5511   54.2960 H       1  ZINC000822449555    0.4100
     42 H42        -7.8999    2.0100   54.7189 H       1  ZINC000822449555    0.1600
     43 H43        -5.6881    2.9073   54.0437 H       1  ZINC000822449555    0.1600
     44 H44        -1.6493    3.7772   52.2020 H       1  ZINC000822449555    0.4800
     45 H45        -7.3842   -1.1016   51.8029 H       1  ZINC000822449555    0.1700
@<TRIPOS>BOND
     1     1     2    1
     2     1    28    1
     3     1    29    1
     4     1    30    1
     5     2    13   ar
     6     2     3   ar
     7     3     4   ar
     8     4     5    1
     9     4    11   ar
    10     5    10    1
    11     5     6    1
    12     6     7    1
    13     6    31    1
    14     6    32    1
    15     7     8    1
    16     7    33    1
    17     7    34    1
    18     8     9    1
    19     9    10    1
    20     9    35    1
    21     9    36    1
    22    10    37    1
    23    10    38    1
    24    11    12   ar
    25    11    39    1
    26    12    13   ar
    27    12    40    1
    28    13    14    1
    29    14    15   am
    30    14    41    1
    31    15    16    2
    32    15    17    1
    33    17    27   ar
    34    17    18   ar
    35    18    19   ar
    36    18    42    1
    37    19    20   ar
    38    19    43    1
    39    20    21    1
    40    20    26   ar
    41    21    25    1
    42    21    22    2
    43    22    23    1
    44    23    24    1
    45    23    44    1
    46    24    25    2
    47    26    27   ar
    48    27    45    1
@<TRIPOS>SUBSTRUCTURE
     1 ZINC000822449555        1 TEMP              0 ****  ****    0 ROOT


##########                                Name:    ZINC000479580180
##########                DOCK_Rotatable_Bonds:                   5
##########                         Heavy_Atoms:                  30
##########                    Molecular_Weight:             404.444
##########                DOCK_Rotatable_Bonds:                   5
##########                       Formal_Charge:           0.0299995
##########                     HBond_Acceptors:                   7
##########                        HBond_Donors:                   1
##########                         Heavy_Atoms:                  30
##########                          Grid_Score:          -30.628395
##########                     Grid_vdw_energy:          -29.117668
##########                      Grid_es_energy:           -1.510728
##########           Internal_energy_repulsive:           18.165770

@<TRIPOS>MOLECULE
ZINC000479580180
 51 55 1 0 0
SMALL
USER_CHARGES


@<TRIPOS>ATOM
      1 O1        -11.7668    0.3348   62.0311 O.2     1  ZINC000479580180   -0.5200
      2 C2        -10.7349    0.5340   61.4257 C.2     1  ZINC000479580180    0.5200
      3 C3         -9.9146    1.7637   61.7190 C.3     1  ZINC000479580180   -0.0700
      4 C4         -8.7129    1.3810   62.5439 C.2     1  ZINC000479580180   -0.1600
      5 C5         -7.4525    1.2405   62.1122 C.2     1  ZINC000479580180    0.0300
      6 O6         -6.6494    0.8903   63.1325 O.3     1  ZINC000479580180   -0.1900
      7 C7         -7.3484    0.7856   64.2804 C.ar    1  ZINC000479580180    0.0800
      8 C8         -7.0003    0.4604   65.5850 C.ar    1  ZINC000479580180   -0.1400
      9 C9         -7.9693    0.4375   66.5685 C.ar    1  ZINC000479580180    0.1300
     10 F10        -7.6281    0.1213   67.8369 F       1  ZINC000479580180   -0.1300
     11 C11        -9.2917    0.7367   66.2663 C.ar    1  ZINC000479580180   -0.1600
     12 C12        -9.6532    1.0588   64.9873 C.ar    1  ZINC000479580180   -0.0400
     13 C13        -8.6870    1.0935   63.9835 C.ar    1  ZINC000479580180   -0.1200
     14 N14       -10.3189   -0.3472   60.4946 N.am    1  ZINC000479580180   -0.6200
     15 C15       -11.1106   -1.5476   60.1934 C.3     1  ZINC000479580180    0.1100
     16 C16       -11.3768   -1.5970   58.6856 C.3     1  ZINC000479580180   -0.1300
     17 C17       -10.0462   -1.5166   57.9337 C.3     1  ZINC000479580180   -0.0100
     18 C18       -10.3017   -1.5993   56.4508 C.2     1  ZINC000479580180    0.3000
     19 N19       -11.3275   -1.0902   55.8213 N.2     1  ZINC000479580180   -0.5300
     20 C20       -11.2320   -1.3539   54.5113 C.2     1  ZINC000479580180    0.2700
     21 C21       -12.2070   -0.9392   53.4720 C.ar    1  ZINC000479580180   -0.0200
     22 C22       -11.8830   -1.0584   52.1222 C.ar    1  ZINC000479580180   -0.0800
     23 C23       -12.7937   -0.6716   51.1599 C.ar    1  ZINC000479580180   -0.1300
     24 C24       -14.0257   -0.1659   51.5334 C.ar    1  ZINC000479580180   -0.1000
     25 C25       -14.3524   -0.0453   52.8721 C.ar    1  ZINC000479580180   -0.1200
     26 C26       -13.4517   -0.4345   53.8427 C.ar    1  ZINC000479580180   -0.0800
     27 N27       -10.1310   -2.0407   54.2987 N.2     1  ZINC000479580180   -0.3000
     28 N28        -9.5101   -2.2049   55.5476 N.pl3   1  ZINC000479580180   -0.4800
     29 C29        -9.3540   -0.1909   58.2588 C.3     1  ZINC000479580180   -0.1400
     30 C30        -9.0679   -0.1226   59.7574 C.3     1  ZINC000479580180    0.1200
     31 H31        -9.5841    2.2121   60.7820 H       1  ZINC000479580180    0.1100
     32 H32       -10.5208    2.4817   62.2714 H       1  ZINC000479580180    0.1100
     33 H33        -7.1283    1.3870   61.0924 H       1  ZINC000479580180    0.2100
     34 H34        -5.9747    0.2259   65.8295 H       1  ZINC000479580180    0.1500
     35 H35       -10.0387    0.7148   67.0459 H       1  ZINC000479580180    0.1400
     36 H36       -10.6827    1.2901   64.7570 H       1  ZINC000479580180    0.1300
     37 H37       -10.5565   -2.4362   60.4959 H       1  ZINC000479580180    0.0800
     38 H38       -12.0580   -1.5048   60.7305 H       1  ZINC000479580180    0.0900
     39 H39       -11.8801   -2.5310   58.4355 H       1  ZINC000479580180    0.0900
     40 H40       -12.0077   -0.7554   58.3997 H       1  ZINC000479580180    0.0700
     41 H41        -9.4062   -2.3446   58.2386 H       1  ZINC000479580180    0.1200
     42 H42       -10.9211   -1.4525   51.8294 H       1  ZINC000479580180    0.1400
     43 H43       -12.5437   -0.7636   50.1132 H       1  ZINC000479580180    0.1300
     44 H44       -14.7351    0.1363   50.7771 H       1  ZINC000479580180    0.1300
     45 H45       -15.3156    0.3505   53.1583 H       1  ZINC000479580180    0.1300
     46 H46       -13.7079   -0.3402   54.8876 H       1  ZINC000479580180    0.1300
     47 H47        -8.6770   -2.6691   55.7248 H       1  ZINC000479580180    0.4400
     48 H48        -8.4177   -0.1241   57.7049 H       1  ZINC000479580180    0.0900
     49 H49       -10.0039    0.6375   57.9769 H       1  ZINC000479580180    0.0700
     50 H50        -8.6657    0.8591   60.0082 H       1  ZINC000479580180    0.1000
     51 H51        -8.3476   -0.8947   60.0276 H       1  ZINC000479580180    0.0800
@<TRIPOS>BOND
     1     1     2    2
     2     2     3    1
     3     2    14   am
     4     3     4    1
     5     3    31    1
     6     3    32    1
     7     4    13    1
     8     4     5    2
     9     5     6    1
    10     5    33    1
    11     6     7    1
    12     7    13   ar
    13     7     8   ar
    14     8     9   ar
    15     8    34    1
    16     9    10    1
    17     9    11   ar
    18    11    12   ar
    19    11    35    1
    20    12    13   ar
    21    12    36    1
    22    14    30    1
    23    14    15    1
    24    15    16    1
    25    15    37    1
    26    15    38    1
    27    16    17    1
    28    16    39    1
    29    16    40    1
    30    17    18    1
    31    17    29    1
    32    17    41    1
    33    18    28    1
    34    18    19    2
    35    19    20    1
    36    20    21    1
    37    20    27    2
    38    21    26   ar
    39    21    22   ar
    40    22    23   ar
    41    22    42    1
    42    23    24   ar
    43    23    43    1
    44    24    25   ar
    45    24    44    1
    46    25    26   ar
    47    25    45    1
    48    26    46    1
    49    27    28    1
    50    28    47    1
    51    29    30    1
    52    29    48    1
    53    29    49    1
    54    30    50    1
    55    30    51    1
@<TRIPOS>SUBSTRUCTURE
     1 ZINC000479580180        1 TEMP              0 ****  ****    0 ROOT


##########                                Name:    ZINC000008416770
##########                DOCK_Rotatable_Bonds:                  13
##########                         Heavy_Atoms:                  30
##########                    Molecular_Weight:             412.442
##########                DOCK_Rotatable_Bonds:                  13
##########                       Formal_Charge:          -0.0199998
##########                     HBond_Acceptors:                   8
##########                        HBond_Donors:                   2
##########                         Heavy_Atoms:                  30
##########                          Grid_Score:          -30.534851
##########                     Grid_vdw_energy:          -28.934786
##########                      Grid_es_energy:           -1.600066
##########           Internal_energy_repulsive:           24.592594

@<TRIPOS>MOLECULE
ZINC000008416770
 54 55 1 0 0
SMALL
USER_CHARGES


@<TRIPOS>ATOM
      1 C1        -13.3345    3.2037   52.6471 C.3     1  ZINC000008416770   -0.1500
      2 C2        -12.5131    4.4595   52.9460 C.3     1  ZINC000008416770    0.0600
      3 O3        -11.1227    4.2215   52.6017 O.3     1  ZINC000008416770   -0.3500
      4 C4        -10.4962    3.2176   53.2461 C.2     1  ZINC000008416770    0.5100
      5 O5        -11.0953    2.5587   54.0727 O.2     1  ZINC000008416770   -0.5100
      6 C6         -9.0832    2.9186   52.9482 C.ar    1  ZINC000008416770   -0.1500
      7 C7         -8.3908    3.6786   52.0008 C.ar    1  ZINC000008416770   -0.0400
      8 C8         -7.0719    3.3970   51.7255 C.ar    1  ZINC000008416770   -0.1400
      9 C9         -6.4277    2.3573   52.3889 C.ar    1  ZINC000008416770    0.1800
     10 N10        -5.0917    2.0749   52.1076 N.am    1  ZINC000008416770   -0.6700
     11 C11        -4.1474    3.0151   52.3090 C.2     1  ZINC000008416770    0.5200
     12 O12        -4.4596    4.1068   52.7350 O.2     1  ZINC000008416770   -0.5100
     13 C13        -2.7033    2.7098   52.0048 C.3     1  ZINC000008416770   -0.1300
     14 C14        -1.8154    3.2980   53.1033 C.3     1  ZINC000008416770   -0.1000
     15 C15        -0.4354    3.5497   52.5528 C.2     1  ZINC000008416770    0.4700
     16 O16         0.2668    4.3995   53.0475 O.2     1  ZINC000008416770   -0.5100
     17 O17         0.0139    2.8299   51.5126 O.3     1  ZINC000008416770   -0.3300
     18 C18         1.4268    2.9394   51.1963 C.3     1  ZINC000008416770    0.0500
     19 C19         1.8134    1.8425   50.2380 C.2     1  ZINC000008416770    0.5100
     20 O20         0.9972    1.4066   49.4538 O.2     1  ZINC000008416770   -0.4900
     21 N21         3.0662    1.3460   50.2522 N.am    1  ZINC000008416770   -0.6700
     22 C22         3.4253    0.3275   49.3624 C.ar    1  ZINC000008416770    0.1400
     23 C23         3.6925   -0.9497   49.8379 C.ar    1  ZINC000008416770   -0.1400
     24 C24         4.0466   -1.9528   48.9570 C.ar    1  ZINC000008416770   -0.1000
     25 C25         4.1357   -1.6864   47.6031 C.ar    1  ZINC000008416770   -0.1000
     26 C26         4.5228   -2.7833   46.6448 C.3     1  ZINC000008416770   -0.1200
     27 C27         3.8698   -0.4159   47.1264 C.ar    1  ZINC000008416770   -0.1000
     28 C28         3.5096    0.5902   48.0014 C.ar    1  ZINC000008416770   -0.1200
     29 C29        -7.1135    1.5990   53.3328 C.ar    1  ZINC000008416770   -0.1600
     30 C30        -8.4312    1.8780   53.6166 C.ar    1  ZINC000008416770   -0.0300
     31 H31       -13.2588    2.9639   51.5865 H       1  ZINC000008416770    0.0700
     32 H32       -12.9518    2.3704   53.2363 H       1  ZINC000008416770    0.0700
     33 H33       -14.3782    3.3823   52.9056 H       1  ZINC000008416770    0.0800
     34 H34       -12.8959    5.2927   52.3568 H       1  ZINC000008416770    0.0700
     35 H35       -12.5889    4.6993   54.0065 H       1  ZINC000008416770    0.0700
     36 H36        -8.8904    4.4855   51.4853 H       1  ZINC000008416770    0.1400
     37 H37        -6.5366    3.9835   50.9936 H       1  ZINC000008416770    0.1400
     38 H38        -4.8419    1.2017   51.7669 H       1  ZINC000008416770    0.4200
     39 H39        -2.5613    1.6300   51.9622 H       1  ZINC000008416770    0.1100
     40 H40        -2.4332    3.1500   51.0449 H       1  ZINC000008416770    0.1100
     41 H41        -2.2440    4.2372   53.4529 H       1  ZINC000008416770    0.1200
     42 H42        -1.7525    2.5957   53.9345 H       1  ZINC000008416770    0.1200
     43 H43         1.6222    3.9086   50.7374 H       1  ZINC000008416770    0.1100
     44 H44         2.0122    2.8458   52.1109 H       1  ZINC000008416770    0.1100
     45 H45         3.7190    1.6946   50.8792 H       1  ZINC000008416770    0.4100
     46 H46         3.6238   -1.1582   50.8953 H       1  ZINC000008416770    0.1300
     47 H47         4.2546   -2.9462   49.3261 H       1  ZINC000008416770    0.1300
     48 H48         3.6259   -3.2974   46.2995 H       1  ZINC000008416770    0.0700
     49 H49         5.0459   -2.3520   45.7912 H       1  ZINC000008416770    0.0700
     50 H50         5.1769   -3.4935   47.1507 H       1  ZINC000008416770    0.0700
     51 H51         3.9403   -0.2110   46.0683 H       1  ZINC000008416770    0.1300
     52 H52         3.3021    1.5824   47.6285 H       1  ZINC000008416770    0.1300
     53 H53        -6.6102    0.7930   53.8461 H       1  ZINC000008416770    0.1400
     54 H54        -8.9629    1.2891   54.3493 H       1  ZINC000008416770    0.1400
@<TRIPOS>BOND
     1     1     2    1
     2     1    31    1
     3     1    32    1
     4     1    33    1
     5     2     3    1
     6     2    34    1
     7     2    35    1
     8     3     4    1
     9     4     5    2
    10     4     6    1
    11     6    30   ar
    12     6     7   ar
    13     7     8   ar
    14     7    36    1
    15     8     9   ar
    16     8    37    1
    17     9    10    1
    18     9    29   ar
    19    10    11   am
    20    10    38    1
    21    11    12    2
    22    11    13    1
    23    13    14    1
    24    13    39    1
    25    13    40    1
    26    14    15    1
    27    14    41    1
    28    14    42    1
    29    15    16    2
    30    15    17    1
    31    17    18    1
    32    18    19    1
    33    18    43    1
    34    18    44    1
    35    19    20    2
    36    19    21   am
    37    21    22    1
    38    21    45    1
    39    22    28   ar
    40    22    23   ar
    41    23    24   ar
    42    23    46    1
    43    24    25   ar
    44    24    47    1
    45    25    26    1
    46    25    27   ar
    47    26    48    1
    48    26    49    1
    49    26    50    1
    50    27    28   ar
    51    27    51    1
    52    28    52    1
    53    29    30   ar
    54    29    53    1
    55    30    54    1
@<TRIPOS>SUBSTRUCTURE
     1 ZINC000008416770        1 TEMP              0 ****  ****    0 ROOT


##########                                Name:    ZINC000174621331
##########                DOCK_Rotatable_Bonds:                   8
##########                         Heavy_Atoms:                  25
##########                    Molecular_Weight:             366.438
##########                DOCK_Rotatable_Bonds:                   8
##########                       Formal_Charge:        -5.96046e-08
##########                     HBond_Acceptors:                   8
##########                        HBond_Donors:                   3
##########                         Heavy_Atoms:                  25
##########                          Grid_Score:          -30.522154
##########                     Grid_vdw_energy:          -29.355705
##########                      Grid_es_energy:           -1.166449
##########           Internal_energy_repulsive:           18.206705

@<TRIPOS>MOLECULE
ZINC000174621331
 47 48 1 0 0
SMALL
USER_CHARGES


@<TRIPOS>ATOM
      1 C1          5.5680    0.6072   50.5475 C.3     1  ZINC000174621331    0.0300
      2 O2          4.3696    0.9886   49.8689 O.3     1  ZINC000174621331   -0.3800
      3 C3          3.3288    1.4412   50.7372 C.3     1  ZINC000174621331    0.0500
      4 C4          2.1015    1.8220   49.9069 C.3     1  ZINC000174621331    0.2400
      5 H5          1.7573    0.9523   49.3472 H       1  ZINC000174621331    0.1300
      6 N6          1.0336    2.2838   50.7973 N.am    1  ZINC000174621331   -0.7200
      7 C7         -0.2553    2.0466   50.4830 C.2     1  ZINC000174621331    0.5600
      8 O8         -0.5319    1.4510   49.4602 O.2     1  ZINC000174621331   -0.5300
      9 C9         -1.3330    2.5110   51.3824 C.ar    1  ZINC000174621331   -0.1600
     10 C10        -1.0220    3.2429   52.5292 C.ar    1  ZINC000174621331   -0.0200
     11 C11        -2.0325    3.6737   53.3641 C.ar    1  ZINC000174621331   -0.1100
     12 C12        -1.6986    4.4642   54.6029 C.3     1  ZINC000174621331   -0.1200
     13 C13        -3.3515    3.3819   53.0663 C.ar    1  ZINC000174621331    0.0400
     14 C14        -4.4501    3.8561   53.9825 C.3     1  ZINC000174621331   -0.1600
     15 C15        -3.6668    2.6569   51.9305 C.ar    1  ZINC000174621331   -0.6800
     16 S16        -5.3502    2.2912   51.5602 S.o2    1  ZINC000174621331    2.7000
     17 N17        -5.8657    1.1770   52.6716 N.am    1  ZINC000174621331   -1.2500
     18 O18        -6.0845    3.4809   51.8142 O.2     1  ZINC000174621331   -0.9500
     19 O19        -5.3499    1.6319   50.3014 O.2     1  ZINC000174621331   -0.9600
     20 C20        -2.6664    2.2241   51.0852 C.ar    1  ZINC000174621331    0.0400
     21 C21         2.4670    2.9248   48.9469 C.2     1  ZINC000174621331   -0.0200
     22 C22         2.3862    4.2441   49.1968 C.2     1  ZINC000174621331   -0.1900
     23 C23         2.8248    4.9097   48.0291 C.2     1  ZINC000174621331   -0.2100
     24 C24         3.1473    3.9574   47.1355 C.2     1  ZINC000174621331    0.0000
     25 C25         3.6668    4.1967   45.7413 C.3     1  ZINC000174621331   -0.0800
     26 O26         2.9342    2.7570   47.6990 O.3     1  ZINC000174621331   -0.1600
     27 H27         5.9594    1.4606   51.1011 H       1  ZINC000174621331    0.0400
     28 H28         5.3503   -0.2061   51.2398 H       1  ZINC000174621331    0.0400
     29 H29         6.3083    0.2760   49.8192 H       1  ZINC000174621331    0.0900
     30 H30         3.0641    0.6450   51.4328 H       1  ZINC000174621331    0.0700
     31 H31         3.6742    2.3115   51.2954 H       1  ZINC000174621331    0.0700
     32 H32         1.2543    2.7601   51.6129 H       1  ZINC000174621331    0.4100
     33 H33         0.0074    3.4714   52.7628 H       1  ZINC000174621331    0.1400
     34 H34        -1.6901    5.5277   54.3640 H       1  ZINC000174621331    0.0800
     35 H35        -2.4476    4.2703   55.3707 H       1  ZINC000174621331    0.0800
     36 H36        -0.7164    4.1665   54.9701 H       1  ZINC000174621331    0.0700
     37 H37        -4.7866    4.8433   53.6658 H       1  ZINC000174621331    0.1100
     38 H38        -5.2852    3.1568   53.9408 H       1  ZINC000174621331    0.0700
     39 H39        -4.0729    3.9111   55.0037 H       1  ZINC000174621331    0.0900
     40 H40        -6.7762    0.8442   52.6383 H       1  ZINC000174621331    0.4200
     41 H41        -5.2572    0.8573   53.3559 H       1  ZINC000174621331    0.4200
     42 H42        -2.9138    1.6587   50.1989 H       1  ZINC000174621331    0.1600
     43 H43         2.0503    4.7061   50.1133 H       1  ZINC000174621331    0.1500
     44 H44         2.8883    5.9778   47.8826 H       1  ZINC000174621331    0.1500
     45 H45         4.7554    4.2454   45.7625 H       1  ZINC000174621331    0.0800
     46 H46         3.3522    3.3804   45.0912 H       1  ZINC000174621331    0.0800
     47 H47         3.2684    5.1376   45.3616 H       1  ZINC000174621331    0.0900
@<TRIPOS>BOND
     1     1     2    1
     2     1    27    1
     3     1    28    1
     4     1    29    1
     5     2     3    1
     6     3     4    1
     7     3    30    1
     8     3    31    1
     9     4     5    1
    10     4     6    1
    11     4    21    1
    12     6     7   am
    13     6    32    1
    14     7     8    2
    15     7     9    1
    16     9    20   ar
    17     9    10   ar
    18    10    11   ar
    19    10    33    1
    20    11    12    1
    21    11    13   ar
    22    12    34    1
    23    12    35    1
    24    12    36    1
    25    13    14    1
    26    13    15   ar
    27    14    37    1
    28    14    38    1
    29    14    39    1
    30    15    16    1
    31    15    20   ar
    32    16    17   am
    33    16    18    2
    34    16    19    2
    35    17    40    1
    36    17    41    1
    37    20    42    1
    38    21    26    1
    39    21    22    2
    40    22    23    1
    41    22    43    1
    42    23    24    2
    43    23    44    1
    44    24    25    1
    45    24    26    1
    46    25    45    1
    47    25    46    1
    48    25    47    1
@<TRIPOS>SUBSTRUCTURE
     1 ZINC000174621331        1 TEMP              0 ****  ****    0 ROOT


##########                                Name:    ZINC000851838607
##########                DOCK_Rotatable_Bonds:                  12
##########                         Heavy_Atoms:                  23
##########                    Molecular_Weight:             352.495
##########                DOCK_Rotatable_Bonds:                  12
##########                       Formal_Charge:          0.00999896
##########                     HBond_Acceptors:                   8
##########                        HBond_Donors:                   2
##########                         Heavy_Atoms:                  23
##########                          Grid_Score:          -30.482832
##########                     Grid_vdw_energy:          -29.311255
##########                      Grid_es_energy:           -1.171578
##########           Internal_energy_repulsive:           21.052156

@<TRIPOS>MOLECULE
ZINC000851838607
 55 54 1 0 0
SMALL
USER_CHARGES


@<TRIPOS>ATOM
      1 C1         -8.6065    0.1714   53.7626 C.3     1  ZINC000851838607    0.0300
      2 O2         -9.1195   -1.1363   54.0250 O.3     1  ZINC000851838607   -0.3800
      3 C3        -10.4782   -1.1497   54.4676 C.3     1  ZINC000851838607    0.0800
      4 C4        -10.5363   -0.7656   55.9474 C.3     1  ZINC000851838607   -0.6000
      5 H5         -9.8179    0.0300   56.1448 H       1  ZINC000851838607    0.1400
      6 C6        -11.9449   -0.2781   56.2929 C.3     1  ZINC000851838607   -0.1400
      7 S7        -10.1309   -2.2123   56.9640 S.o2    1  ZINC000851838607    2.6200
      8 O8        -11.1841   -2.4918   57.8760 O.2     1  ZINC000851838607   -0.9400
      9 O9         -9.5622   -3.2400   56.1643 O.2     1  ZINC000851838607   -0.9500
     10 N10        -8.8818   -1.7046   57.9256 N.am    1  ZINC000851838607   -1.1200
     11 C11        -9.0728   -0.5752   58.8389 C.3     1  ZINC000851838607    0.1100
     12 C12        -7.7132   -0.1047   59.3595 C.3     1  ZINC000851838607   -0.1400
     13 C13        -7.9150    1.0530   60.3392 C.3     1  ZINC000851838607    0.1700
     14 H14        -8.9811    1.2450   60.4601 H       1  ZINC000851838607    0.1000
     15 N15        -7.3317    0.7021   61.6365 N.am    1  ZINC000851838607   -0.7100
     16 C16        -8.1296    0.3161   62.6518 C.2     1  ZINC000851838607    0.6500
     17 O17        -9.3327    0.2577   62.4907 O.2     1  ZINC000851838607   -0.5600
     18 O18        -7.5938   -0.0048   63.8445 O.3     1  ZINC000851838607   -0.3700
     19 C19        -7.7898    0.9389   64.9305 C.3     1  ZINC000851838607    0.1400
     20 C20        -6.7203    0.7137   66.0011 C.3     1  ZINC000851838607   -0.1800
     21 C21        -7.6795    2.3666   64.3918 C.3     1  ZINC000851838607   -0.1400
     22 C22        -9.1763    0.7306   65.5430 C.3     1  ZINC000851838607   -0.1800
     23 C23        -7.2294    2.3075   59.7943 C.3     1  ZINC000851838607   -0.1100
     24 C24        -8.0201    2.8423   58.5987 C.3     1  ZINC000851838607   -0.1500
     25 C25        -7.1753    3.3753   60.8888 C.3     1  ZINC000851838607   -0.1400
     26 H26        -9.2032    0.6463   52.9837 H       1  ZINC000851838607    0.0400
     27 H27        -8.6544    0.7698   54.6724 H       1  ZINC000851838607    0.0500
     28 H28        -7.5708    0.0958   53.4315 H       1  ZINC000851838607    0.0900
     29 H29       -11.0575   -0.4346   53.8836 H       1  ZINC000851838607    0.0700
     30 H30       -10.8937   -2.1486   54.3348 H       1  ZINC000851838607    0.0600
     31 H31       -12.0119   -0.0908   57.3646 H       1  ZINC000851838607    0.0700
     32 H32       -12.1539    0.6432   55.7493 H       1  ZINC000851838607    0.0900
     33 H33       -12.6722   -1.0394   56.0109 H       1  ZINC000851838607    0.0700
     34 H34        -8.0238   -2.1551   57.8841 H       1  ZINC000851838607    0.4200
     35 H35        -9.5616    0.2421   58.3088 H       1  ZINC000851838607    0.0700
     36 H36        -9.6948   -0.8875   59.6777 H       1  ZINC000851838607    0.0800
     37 H37        -7.2142   -0.9291   59.8689 H       1  ZINC000851838607    0.0800
     38 H38        -7.0998    0.2299   58.5229 H       1  ZINC000851838607    0.1000
     39 H39        -6.3714    0.7475   61.7647 H       1  ZINC000851838607    0.4100
     40 H40        -5.7325    0.8620   65.5648 H       1  ZINC000851838607    0.0600
     41 H41        -6.8675    1.4220   66.8164 H       1  ZINC000851838607    0.0700
     42 H42        -6.7989   -0.3035   66.3849 H       1  ZINC000851838607    0.0900
     43 H43        -8.4415    2.5271   63.6290 H       1  ZINC000851838607    0.0700
     44 H44        -7.8267    3.0750   65.2070 H       1  ZINC000851838607    0.0800
     45 H45        -6.6917    2.5150   63.9555 H       1  ZINC000851838607    0.0700
     46 H46        -9.2550   -0.2865   65.9268 H       1  ZINC000851838607    0.0900
     47 H47        -9.3236    1.4390   66.3583 H       1  ZINC000851838607    0.0700
     48 H48        -9.9384    0.8911   64.7802 H       1  ZINC000851838607    0.0600
     49 H49        -6.2161    2.0596   59.4782 H       1  ZINC000851838607    0.0700
     50 H50        -9.0334    3.0902   58.9147 H       1  ZINC000851838607    0.0600
     51 H51        -7.5316    3.7362   58.2105 H       1  ZINC000851838607    0.0600
     52 H52        -8.0586    2.0817   57.8189 H       1  ZINC000851838607    0.0600
     53 H53        -6.6121    2.9943   61.7406 H       1  ZINC000851838607    0.0500
     54 H54        -6.6870    4.2691   60.5007 H       1  ZINC000851838607    0.0500
     55 H55        -8.1887    3.6232   61.2049 H       1  ZINC000851838607    0.0700
@<TRIPOS>BOND
     1     1     2    1
     2     1    26    1
     3     1    27    1
     4     1    28    1
     5     2     3    1
     6     3     4    1
     7     3    29    1
     8     3    30    1
     9     4     5    1
    10     4     6    1
    11     4     7    1
    12     6    31    1
    13     6    32    1
    14     6    33    1
    15     7     8    2
    16     7     9    2
    17     7    10   am
    18    10    11    1
    19    10    34    1
    20    11    12    1
    21    11    35    1
    22    11    36    1
    23    12    13    1
    24    12    37    1
    25    12    38    1
    26    13    14    1
    27    13    15    1
    28    13    23    1
    29    15    16   am
    30    15    39    1
    31    16    17    2
    32    16    18    1
    33    18    19    1
    34    19    20    1
    35    19    21    1
    36    19    22    1
    37    20    40    1
    38    20    41    1
    39    20    42    1
    40    21    43    1
    41    21    44    1
    42    21    45    1
    43    22    46    1
    44    22    47    1
    45    22    48    1
    46    23    24    1
    47    23    25    1
    48    23    49    1
    49    24    50    1
    50    24    51    1
    51    24    52    1
    52    25    53    1
    53    25    54    1
    54    25    55    1
@<TRIPOS>SUBSTRUCTURE
     1 ZINC000851838607        1 TEMP              0 ****  ****    0 ROOT


##########                                Name:    ZINC000989658617
##########                DOCK_Rotatable_Bonds:                   6
##########                         Heavy_Atoms:                  24
##########                    Molecular_Weight:             334.418
##########                DOCK_Rotatable_Bonds:                   6
##########                       Formal_Charge:          -0.0100001
##########                     HBond_Acceptors:                   7
##########                        HBond_Donors:                   2
##########                         Heavy_Atoms:                  24
##########                          Grid_Score:          -30.472254
##########                     Grid_vdw_energy:          -29.447845
##########                      Grid_es_energy:           -1.024408
##########           Internal_energy_repulsive:           13.936783

@<TRIPOS>MOLECULE
ZINC000989658617
 50 52 1 0 0
SMALL
USER_CHARGES


@<TRIPOS>ATOM
      1 C1        -10.8213    0.6517   62.1921 C.3     1  ZINC000989658617    0.0300
      2 O2         -9.8506    0.2017   61.2448 O.3     1  ZINC000989658617   -0.3700
      3 C3        -10.3151    0.1988   59.8934 C.3     1  ZINC000989658617    0.0500
      4 C4        -10.7857   -1.1851   59.5269 C.2     1  ZINC000989658617    0.5300
      5 O5        -11.2136   -1.9272   60.3855 O.2     1  ZINC000989658617   -0.5100
      6 N6        -10.7313   -1.5979   58.2452 N.am    1  ZINC000989658617   -0.6200
      7 C7        -11.1565   -2.9195   57.7494 C.3     1  ZINC000989658617    0.1000
      8 C8        -10.3564   -3.1279   56.4394 C.3     1  ZINC000989658617   -0.1500
      9 C9        -10.3420   -1.6921   55.8514 C.3     1  ZINC000989658617    0.1400
     10 H10       -11.2657   -1.4879   55.3099 H       1  ZINC000989658617    0.1100
     11 N11        -9.1797   -1.5003   54.9806 N.am    1  ZINC000989658617   -0.7100
     12 C12        -9.2096   -0.5618   54.0137 C.2     1  ZINC000989658617    0.6100
     13 O13       -10.2017    0.1245   53.8633 O.2     1  ZINC000989658617   -0.5200
     14 C14        -8.0370   -0.3671   53.1368 C.2     1  ZINC000989658617   -0.0100
     15 N15        -7.4692   -1.2771   52.3638 N.2     1  ZINC000989658617   -0.2600
     16 N16        -6.4687   -0.7636   51.7351 N.pl3   1  ZINC000989658617   -0.3700
     17 C17        -6.3297    0.5298   52.0695 C.2     1  ZINC000989658617    0.0100
     18 C18        -7.3116    0.8225   52.9573 C.2     1  ZINC000989658617   -0.1400
     19 C19        -7.5159    2.1707   53.5915 C.3     1  ZINC000989658617   -0.0400
     20 C20        -6.2359    2.9943   53.3948 C.3     1  ZINC000989658617   -0.0900
     21 H21        -5.4414    2.5855   54.0192 H       1  ZINC000989658617    0.0700
     22 C22        -6.4991    4.4482   53.7918 C.3     1  ZINC000989658617   -0.1500
     23 C23        -5.8110    2.9359   51.9251 C.3     1  ZINC000989658617   -0.1100
     24 C24        -5.3090    1.5278   51.5862 C.3     1  ZINC000989658617   -0.0500
     25 C25       -10.2441   -0.8025   57.1087 C.3     1  ZINC000989658617    0.1300
     26 H26        -9.2064   -0.5166   57.2806 H       1  ZINC000989658617    0.0800
     27 C27       -11.1056    0.4490   56.9289 C.3     1  ZINC000989658617   -0.1600
     28 H28       -11.1175    1.6727   61.9517 H       1  ZINC000989658617    0.0500
     29 H29       -11.6952    0.0013   62.1537 H       1  ZINC000989658617    0.0400
     30 H30       -10.3917    0.6242   63.1935 H       1  ZINC000989658617    0.0900
     31 H31       -11.1412    0.9024   59.7917 H       1  ZINC000989658617    0.0800
     32 H32        -9.5026    0.4940   59.2294 H       1  ZINC000989658617    0.0800
     33 H33       -10.9068   -3.6949   58.4738 H       1  ZINC000989658617    0.0800
     34 H34       -12.2270   -2.9215   57.5443 H       1  ZINC000989658617    0.0800
     35 H35        -9.3445   -3.4738   56.6505 H       1  ZINC000989658617    0.0800
     36 H36       -10.8723   -3.8183   55.7720 H       1  ZINC000989658617    0.1000
     37 H37        -8.3885   -2.0487   55.0998 H       1  ZINC000989658617    0.4100
     38 H38        -5.8994   -1.2411   51.1116 H       1  ZINC000989658617    0.4500
     39 H39        -8.3555    2.6772   53.1155 H       1  ZINC000989658617    0.0800
     40 H40        -7.7149    2.0495   54.6563 H       1  ZINC000989658617    0.0800
     41 H41        -6.8010    4.4902   54.8383 H       1  ZINC000989658617    0.0600
     42 H42        -5.5901    5.0333   53.6521 H       1  ZINC000989658617    0.0600
     43 H43        -7.2938    4.8571   53.1677 H       1  ZINC000989658617    0.0600
     44 H44        -6.6642    3.1759   51.2909 H       1  ZINC000989658617    0.0700
     45 H45        -5.0139    3.6582   51.7488 H       1  ZINC000989658617    0.0800
     46 H46        -4.3586    1.3461   52.0880 H       1  ZINC000989658617    0.0800
     47 H47        -5.1796    1.4337   50.5080 H       1  ZINC000989658617    0.0800
     48 H48       -12.1443    0.1562   56.7755 H       1  ZINC000989658617    0.0600
     49 H49       -11.0316    1.0721   57.8201 H       1  ZINC000989658617    0.0700
     50 H50       -10.7547    1.0104   56.0629 H       1  ZINC000989658617    0.0700
@<TRIPOS>BOND
     1     1     2    1
     2     1    28    1
     3     1    29    1
     4     1    30    1
     5     2     3    1
     6     3     4    1
     7     3    31    1
     8     3    32    1
     9     4     5    2
    10     4     6   am
    11     6    25    1
    12     6     7    1
    13     7     8    1
    14     7    33    1
    15     7    34    1
    16     8     9    1
    17     8    35    1
    18     8    36    1
    19     9    10    1
    20     9    11    1
    21     9    25    1
    22    11    12   am
    23    11    37    1
    24    12    13    2
    25    12    14    1
    26    14    18    1
    27    14    15    2
    28    15    16    1
    29    16    17    1
    30    16    38    1
    31    17    24    1
    32    17    18    2
    33    18    19    1
    34    19    20    1
    35    19    39    1
    36    19    40    1
    37    20    21    1
    38    20    22    1
    39    20    23    1
    40    22    41    1
    41    22    42    1
    42    22    43    1
    43    23    24    1
    44    23    44    1
    45    23    45    1
    46    24    46    1
    47    24    47    1
    48    25    26    1
    49    25    27    1
    50    27    48    1
    51    27    49    1
    52    27    50    1
@<TRIPOS>SUBSTRUCTURE
     1 ZINC000989658617        1 TEMP              0 ****  ****    0 ROOT


##########                                Name:    ZINC000499369364
##########                DOCK_Rotatable_Bonds:                   9
##########                         Heavy_Atoms:                  25
##########                    Molecular_Weight:             384.527
##########                DOCK_Rotatable_Bonds:                   9
##########                       Formal_Charge:        -5.88596e-07
##########                     HBond_Acceptors:                  10
##########                        HBond_Donors:                   1
##########                         Heavy_Atoms:                  25
##########                          Grid_Score:          -30.448456
##########                     Grid_vdw_energy:          -30.529478
##########                      Grid_es_energy:            0.081023
##########           Internal_energy_repulsive:           19.392925

@<TRIPOS>MOLECULE
ZINC000499369364
 49 51 1 0 0
SMALL
USER_CHARGES


@<TRIPOS>ATOM
      1 C1         -7.6647    1.2586   59.9499 C.3     1  ZINC000499369364   -0.1500
      2 C2         -8.9324    1.0770   59.1126 C.3     1  ZINC000499369364   -0.1000
      3 C3         -8.6356    1.4319   57.6543 C.3     1  ZINC000499369364   -0.1500
      4 C4         -9.3965   -0.3783   59.1991 C.3     1  ZINC000499369364    0.1500
      5 H5         -8.5402   -1.0409   59.0731 H       1  ZINC000499369364    0.0900
      6 C6        -10.0384   -0.6287   60.5651 C.3     1  ZINC000499369364   -0.1700
      7 N7        -10.3772   -0.6417   58.1431 N.am    1  ZINC000499369364   -0.7200
      8 C8        -10.5600   -1.8983   57.6913 C.2     1  ZINC000499369364    0.5100
      9 O9         -9.9116   -2.8108   58.1579 O.2     1  ZINC000499369364   -0.5100
     10 C10       -11.5701   -2.1695   56.6063 C.3     1  ZINC000499369364    0.1200
     11 H11       -11.5935   -3.2416   56.4108 H       1  ZINC000499369364    0.1200
     12 C12       -12.9644   -1.7244   57.1031 C.3     1  ZINC000499369364   -0.0800
     13 S13       -13.1077   -0.0572   56.3327 S.3     1  ZINC000499369364   -0.2400
     14 C14       -12.1240   -0.5203   54.8474 C.3     1  ZINC000499369364    0.1400
     15 N15       -11.1511   -1.4819   55.3945 N.am    1  ZINC000499369364   -0.6000
     16 C16        -9.9571   -1.7120   54.8132 C.2     1  ZINC000499369364    0.5600
     17 O17        -9.1897   -2.5146   55.3010 O.2     1  ZINC000499369364   -0.5000
     18 C18        -9.5756   -0.9720   53.5570 C.3     1  ZINC000499369364   -0.1500
     19 S19        -8.7373    0.5708   53.9966 S.3     1  ZINC000499369364    0.1300
     20 C20        -7.3145    0.4507   52.9643 C.2     1  ZINC000499369364    0.2000
     21 N21        -6.9039   -0.6206   52.3208 N.2     1  ZINC000499369364   -0.3400
     22 N22        -5.8332   -0.3651   51.6592 N.2     1  ZINC000499369364   -0.0300
     23 N23        -5.4857    0.8649   51.8268 N.2     1  ZINC000499369364   -0.0800
     24 N24        -6.4411    1.4454   52.6792 N.pl3   1  ZINC000499369364   -0.3300
     25 C25        -6.4787    2.8277   53.1628 C.3     1  ZINC000499369364    0.0500
     26 C26        -5.8368    3.1188   54.5208 C.3     1  ZINC000499369364   -0.1500
     27 C27        -5.1525    3.5872   53.2349 C.3     1  ZINC000499369364   -0.1600
     28 H28        -7.3341    2.2954   59.8883 H       1  ZINC000499369364    0.0600
     29 H29        -7.8762    1.0058   60.9888 H       1  ZINC000499369364    0.0600
     30 H30        -6.8808    0.6040   59.5690 H       1  ZINC000499369364    0.0600
     31 H31        -9.7163    1.7316   59.4935 H       1  ZINC000499369364    0.0800
     32 H32        -8.3049    2.4687   57.5926 H       1  ZINC000499369364    0.0600
     33 H33        -7.8517    0.7773   57.2733 H       1  ZINC000499369364    0.0600
     34 H34        -9.5387    1.3024   57.0577 H       1  ZINC000499369364    0.0500
     35 H35       -10.8947    0.0339   60.6911 H       1  ZINC000499369364    0.0600
     36 H36       -10.3691   -1.6655   60.6267 H       1  ZINC000499369364    0.0600
     37 H37        -9.3088   -0.4327   61.3509 H       1  ZINC000499369364    0.0700
     38 H38       -10.8950    0.0883   57.7690 H       1  ZINC000499369364    0.4000
     39 H39       -13.7429   -2.3934   56.7362 H       1  ZINC000499369364    0.1200
     40 H40       -12.9894   -1.6566   58.1907 H       1  ZINC000499369364    0.1300
     41 H41       -12.7568   -0.9934   54.0966 H       1  ZINC000499369364    0.1100
     42 H42       -11.6157    0.3505   54.4333 H       1  ZINC000499369364    0.1200
     43 H43        -8.9068   -1.5914   52.9594 H       1  ZINC000499369364    0.1300
     44 H44       -10.4734   -0.7465   52.9814 H       1  ZINC000499369364    0.1300
     45 H45        -7.3698    3.3954   52.8950 H       1  ZINC000499369364    0.1600
     46 H46        -6.3056    3.8780   55.1467 H       1  ZINC000499369364    0.1200
     47 H47        -5.3865    2.2818   55.0543 H       1  ZINC000499369364    0.1200
     48 H48        -4.2520    3.0583   52.9226 H       1  ZINC000499369364    0.1100
     49 H49        -5.1711    4.6546   53.0149 H       1  ZINC000499369364    0.1200
@<TRIPOS>BOND
     1     1     2    1
     2     1    28    1
     3     1    29    1
     4     1    30    1
     5     2     3    1
     6     2     4    1
     7     2    31    1
     8     3    32    1
     9     3    33    1
    10     3    34    1
    11     4     5    1
    12     4     6    1
    13     4     7    1
    14     6    35    1
    15     6    36    1
    16     6    37    1
    17     7     8   am
    18     7    38    1
    19     8     9    2
    20     8    10    1
    21    10    11    1
    22    10    15    1
    23    10    12    1
    24    12    13    1
    25    12    39    1
    26    12    40    1
    27    13    14    1
    28    14    15    1
    29    14    41    1
    30    14    42    1
    31    15    16   am
    32    16    17    2
    33    16    18    1
    34    18    19    1
    35    18    43    1
    36    18    44    1
    37    19    20    1
    38    20    24    1
    39    20    21    2
    40    21    22    1
    41    22    23    2
    42    23    24    1
    43    24    25    1
    44    25    27    1
    45    25    26    1
    46    25    45    1
    47    26    27    1
    48    26    46    1
    49    26    47    1
    50    27    48    1
    51    27    49    1
@<TRIPOS>SUBSTRUCTURE
     1 ZINC000499369364        1 TEMP              0 ****  ****    0 ROOT


##########                                Name:    ZINC000489403631
##########                DOCK_Rotatable_Bonds:                   7
##########                         Heavy_Atoms:                  28
##########                    Molecular_Weight:             381.391
##########                DOCK_Rotatable_Bonds:                   7
##########                       Formal_Charge:          -0.0300003
##########                     HBond_Acceptors:                   9
##########                        HBond_Donors:                   1
##########                         Heavy_Atoms:                  28
##########                          Grid_Score:          -30.428291
##########                     Grid_vdw_energy:          -30.983513
##########                      Grid_es_energy:            0.555221
##########           Internal_energy_repulsive:           11.622309

@<TRIPOS>MOLECULE
ZINC000489403631
 47 49 1 0 0
SMALL
USER_CHARGES


@<TRIPOS>ATOM
      1 C1         -9.5683   -1.7672   56.8876 C.3     1  ZINC000489403631   -0.1100
      2 C2         -9.2659   -0.2986   57.0372 C.ar    1  ZINC000489403631   -0.0800
      3 C3         -9.0214    0.4732   55.9190 C.ar    1  ZINC000489403631   -0.0900
      4 C4         -8.7427    1.8267   56.0571 C.ar    1  ZINC000489403631    0.1200
      5 N5         -8.4949    2.6104   54.9227 N.am    1  ZINC000489403631   -0.6600
      6 C6         -7.2269    2.8657   54.5438 C.2     1  ZINC000489403631    0.5100
      7 O7         -6.3003    2.4169   55.1850 O.2     1  ZINC000489403631   -0.4600
      8 C8         -6.9604    3.7088   53.3234 C.3     1  ZINC000489403631    0.1700
      9 C9         -8.2033    3.7217   52.4312 C.3     1  ZINC000489403631   -0.1700
     10 C10        -6.6270    5.1385   53.7541 C.3     1  ZINC000489403631   -0.1700
     11 N11        -5.8306    3.1470   52.5790 N.pl3   1  ZINC000489403631   -0.3400
     12 C12        -4.5239    3.3710   52.8307 C.2     1  ZINC000489403631    0.1500
     13 C13        -3.8033    2.6726   51.9229 C.2     1  ZINC000489403631   -0.1900
     14 N14        -2.3267    2.6290   51.8305 N.pl3   1  ZINC000489403631    0.0700
     15 O15        -1.7913    2.0423   50.9072 O.2     1  ZINC000489403631   -0.1700
     16 O16        -1.6470    3.1797   52.6781 O.2     1  ZINC000489403631   -0.1600
     17 C17        -4.7005    1.9988   51.0876 C.2     1  ZINC000489403631    0.1000
     18 N18        -5.9159    2.2776   51.4839 N.2     1  ZINC000489403631   -0.2200
     19 C19        -8.7101    2.4029   57.3199 C.ar    1  ZINC000489403631   -0.1100
     20 C20        -8.9549    1.6298   58.4378 C.ar    1  ZINC000489403631   -0.1700
     21 C21        -9.2388    0.2791   58.2987 C.ar    1  ZINC000489403631    0.1000
     22 O22        -9.4797   -0.4815   59.3996 O.3     1  ZINC000489403631   -0.2500
     23 C23        -8.9325   -0.0884   60.5777 C.ar    1  ZINC000489403631    0.1400
     24 C24        -7.5514   -0.0886   60.7592 C.ar    1  ZINC000489403631   -0.2000
     25 C25        -7.0341    0.3181   61.9717 C.ar    1  ZINC000489403631    0.1200
     26 N26        -7.8299    0.7036   62.9514 N.ar    1  ZINC000489403631   -0.4900
     27 C27        -9.1427    0.7177   62.8180 C.ar    1  ZINC000489403631    0.1200
     28 C28        -9.7372    0.3311   61.6344 C.ar    1  ZINC000489403631   -0.1800
     29 H29       -10.6434   -1.9072   56.7748 H       1  ZINC000489403631    0.0700
     30 H30        -9.0571   -2.1555   56.0066 H       1  ZINC000489403631    0.0700
     31 H31        -9.2232   -2.3014   57.7728 H       1  ZINC000489403631    0.0700
     32 H32        -9.0464    0.0244   54.9370 H       1  ZINC000489403631    0.1500
     33 H33        -9.2359    2.9694   54.4100 H       1  ZINC000489403631    0.4100
     34 H34        -9.0439    4.1397   52.9851 H       1  ZINC000489403631    0.1000
     35 H35        -8.0105    4.3315   51.5485 H       1  ZINC000489403631    0.0900
     36 H36        -8.4408    2.7031   52.1243 H       1  ZINC000489403631    0.0800
     37 H37        -5.7416    5.1293   54.3899 H       1  ZINC000489403631    0.0800
     38 H38        -6.4342    5.7483   52.8715 H       1  ZINC000489403631    0.0900
     39 H39        -7.4676    5.5564   54.3081 H       1  ZINC000489403631    0.0900
     40 H40        -4.1248    3.9959   53.6159 H       1  ZINC000489403631    0.2000
     41 H41        -4.4356    1.3556   50.2616 H       1  ZINC000489403631    0.2100
     42 H42        -8.4931    3.4553   57.4280 H       1  ZINC000489403631    0.1300
     43 H43        -8.9296    2.0779   59.4201 H       1  ZINC000489403631    0.1300
     44 H44        -6.8946   -0.4032   59.9617 H       1  ZINC000489403631    0.1400
     45 H45        -5.9645    0.3208   62.1213 H       1  ZINC000489403631    0.1600
     46 H46        -9.7593    1.0398   63.6441 H       1  ZINC000489403631    0.1700
     47 H47       -10.8122    0.3453   61.5316 H       1  ZINC000489403631    0.1500
@<TRIPOS>BOND
     1     1     2    1
     2     1    29    1
     3     1    30    1
     4     1    31    1
     5     2    21   ar
     6     2     3   ar
     7     3     4   ar
     8     3    32    1
     9     4     5    1
    10     4    19   ar
    11     5     6   am
    12     5    33    1
    13     6     7    2
    14     6     8    1
    15     8     9    1
    16     8    10    1
    17     8    11    1
    18     9    34    1
    19     9    35    1
    20     9    36    1
    21    10    37    1
    22    10    38    1
    23    10    39    1
    24    11    18    1
    25    11    12    1
    26    12    13    2
    27    12    40    1
    28    13    14    1
    29    13    17    1
    30    14    15    2
    31    14    16    2
    32    17    18    2
    33    17    41    1
    34    19    20   ar
    35    19    42    1
    36    20    21   ar
    37    20    43    1
    38    21    22    1
    39    22    23    1
    40    23    28   ar
    41    23    24   ar
    42    24    25   ar
    43    24    44    1
    44    25    26   ar
    45    25    45    1
    46    26    27   ar
    47    27    28   ar
    48    27    46    1
    49    28    47    1
@<TRIPOS>SUBSTRUCTURE
     1 ZINC000489403631        1 TEMP              0 ****  ****    0 ROOT


##########                                Name:    ZINC000981048968
##########                DOCK_Rotatable_Bonds:                   7
##########                         Heavy_Atoms:                  25
##########                    Molecular_Weight:             344.414
##########                DOCK_Rotatable_Bonds:                   7
##########                       Formal_Charge:                0.02
##########                     HBond_Acceptors:                   7
##########                        HBond_Donors:                   2
##########                         Heavy_Atoms:                  25
##########                          Grid_Score:          -30.299974
##########                     Grid_vdw_energy:          -29.079498
##########                      Grid_es_energy:           -1.220476
##########           Internal_energy_repulsive:            4.569665

@<TRIPOS>MOLECULE
ZINC000981048968
 49 52 1 0 0
SMALL
USER_CHARGES


@<TRIPOS>ATOM
      1 C1         -8.3581    0.4836   63.3589 C.3     1  ZINC000981048968   -0.0800
      2 C2         -7.8663    1.3522   62.2298 C.2     1  ZINC000981048968   -0.0100
      3 C3         -7.2045    0.9184   61.1461 C.2     1  ZINC000981048968   -0.1600
      4 C4         -6.9359    2.1127   60.3318 C.2     1  ZINC000981048968   -0.2300
      5 C5         -6.2329    2.1690   59.0377 C.2     1  ZINC000981048968    0.5900
      6 O6         -6.0087    1.1442   58.4225 O.2     1  ZINC000981048968   -0.5300
      7 N7         -5.8385    3.3562   58.5362 N.am    1  ZINC000981048968   -0.7300
      8 C8         -5.1382    3.4120   57.2506 C.3     1  ZINC000981048968    0.1500
      9 H9         -4.5179    2.5230   57.1358 H       1  ZINC000981048968    0.0900
     10 C10        -4.2541    4.6600   57.2053 C.3     1  ZINC000981048968   -0.1300
     11 C11        -3.5227    4.7183   55.8627 C.3     1  ZINC000981048968   -0.1200
     12 C12        -4.5459    4.7765   54.7266 C.3     1  ZINC000981048968   -0.1100
     13 C13        -5.4299    3.5285   54.7719 C.3     1  ZINC000981048968    0.1000
     14 H14        -4.8096    2.6396   54.6572 H       1  ZINC000981048968    0.0500
     15 N15        -6.4122    3.5844   53.6812 N.3     1  ZINC000981048968   -0.6800
     16 C16        -5.9773    2.7698   52.5387 C.3     1  ZINC000981048968    0.1500
     17 C17        -6.6271    1.4122   52.6134 C.2     1  ZINC000981048968    0.1800
     18 N18        -6.1942    0.3206   52.0570 N.2     1  ZINC000981048968   -0.3800
     19 O19        -6.9412   -0.6022   52.3056 O.3     1  ZINC000981048968    0.0800
     20 C20        -7.9523   -0.1740   53.0674 C.2     1  ZINC000981048968    0.2100
     21 C21        -9.0937   -1.0051   53.5941 C.3     1  ZINC000981048968   -0.0800
     22 C22        -9.5517   -0.7464   55.0308 C.3     1  ZINC000981048968   -0.1600
     23 C23       -10.4227   -0.2941   53.8570 C.3     1  ZINC000981048968   -0.1500
     24 N24        -7.7587    1.1066   53.2731 N.2     1  ZINC000981048968   -0.4600
     25 C25        -6.1613    3.4702   56.1145 C.3     1  ZINC000981048968   -0.1300
     26 C26        -7.4742    3.1578   61.0240 C.2     1  ZINC000981048968    0.0200
     27 O27        -8.0254    2.6821   62.1448 O.3     1  ZINC000981048968   -0.1700
     28 H28        -8.8644    1.1027   64.0995 H       1  ZINC000981048968    0.0800
     29 H29        -9.0541   -0.2592   62.9693 H       1  ZINC000981048968    0.0900
     30 H30        -7.5114   -0.0207   63.8246 H       1  ZINC000981048968    0.0900
     31 H31        -6.9258   -0.0999   60.9186 H       1  ZINC000981048968    0.1600
     32 H32        -6.0185    4.1737   59.0263 H       1  ZINC000981048968    0.4000
     33 H33        -4.8744    5.5490   57.3200 H       1  ZINC000981048968    0.0700
     34 H34        -3.5252    4.6185   58.0146 H       1  ZINC000981048968    0.0700
     35 H35        -2.8929    5.6073   55.8303 H       1  ZINC000981048968    0.0700
     36 H36        -2.9025    3.8293   55.7478 H       1  ZINC000981048968    0.0600
     37 H37        -5.1661    5.6654   54.8414 H       1  ZINC000981048968    0.0700
     38 H38        -4.0248    4.8180   53.7701 H       1  ZINC000981048968    0.0700
     39 H39        -7.3254    3.2991   54.0020 H       1  ZINC000981048968    0.3500
     40 H40        -6.2683    3.2614   51.6104 H       1  ZINC000981048968    0.1100
     41 H41        -4.8936    2.6558   52.5654 H       1  ZINC000981048968    0.0600
     42 H42        -9.1355   -2.0314   53.2293 H       1  ZINC000981048968    0.1500
     43 H43        -9.8949   -1.6025   55.6116 H       1  ZINC000981048968    0.1200
     44 H44        -9.0275    0.0249   55.5951 H       1  ZINC000981048968    0.1100
     45 H45       -10.4714    0.7747   53.6490 H       1  ZINC000981048968    0.1000
     46 H46       -11.3389   -0.8528   53.6656 H       1  ZINC000981048968    0.1200
     47 H47        -6.7911    2.5812   56.1469 H       1  ZINC000981048968    0.0700
     48 H48        -6.7815    4.3592   56.2293 H       1  ZINC000981048968    0.0800
     49 H49        -7.4604    4.1931   60.7167 H       1  ZINC000981048968    0.2100
@<TRIPOS>BOND
     1     1     2    1
     2     1    28    1
     3     1    29    1
     4     1    30    1
     5     2    27    1
     6     2     3    2
     7     3     4    1
     8     3    31    1
     9     4     5    1
    10     4    26    2
    11     5     6    2
    12     5     7   am
    13     7     8    1
    14     7    32    1
    15     8     9    1
    16     8    25    1
    17     8    10    1
    18    10    11    1
    19    10    33    1
    20    10    34    1
    21    11    12    1
    22    11    35    1
    23    11    36    1
    24    12    13    1
    25    12    37    1
    26    12    38    1
    27    13    14    1
    28    13    15    1
    29    13    25    1
    30    15    16    1
    31    15    39    1
    32    16    17    1
    33    16    40    1
    34    16    41    1
    35    17    24    1
    36    17    18    2
    37    18    19    1
    38    19    20    1
    39    20    21    1
    40    20    24    2
    41    21    23    1
    42    21    22    1
    43    21    42    1
    44    22    23    1
    45    22    43    1
    46    22    44    1
    47    23    45    1
    48    23    46    1
    49    25    47    1
    50    25    48    1
    51    26    27    1
    52    26    49    1
@<TRIPOS>SUBSTRUCTURE
     1 ZINC000981048968        1 TEMP              0 ****  ****    0 ROOT


##########                                Name:    ZINC000671418508
##########                DOCK_Rotatable_Bonds:                   9
##########                         Heavy_Atoms:                  28
##########                    Molecular_Weight:             405.884
##########                DOCK_Rotatable_Bonds:                   9
##########                       Formal_Charge:         -1.3411e-07
##########                     HBond_Acceptors:                   9
##########                        HBond_Donors:                   2
##########                         Heavy_Atoms:                  28
##########                          Grid_Score:          -30.249477
##########                     Grid_vdw_energy:          -30.516130
##########                      Grid_es_energy:            0.266653
##########           Internal_energy_repulsive:           17.598158

@<TRIPOS>MOLECULE
ZINC000671418508
 52 54 1 0 0
SMALL
USER_CHARGES


@<TRIPOS>ATOM
      1 C1         -8.7077   -0.5429   66.5377 C.3     1  ZINC000671418508    0.1000
      2 N2         -7.9883    0.0789   65.4231 N.pl3   1  ZINC000671418508   -0.3700
      3 C3         -8.4140    0.1502   64.1446 C.2     1  ZINC000671418508    0.0800
      4 C4         -7.4658    0.7989   63.4297 C.2     1  ZINC000671418508   -0.2700
      5 C5         -7.5217    1.1051   61.9551 C.3     1  ZINC000671418508    0.2000
      6 N6         -8.4897    0.2159   61.3081 N.am    1  ZINC000671418508   -0.6900
      7 C7         -9.5563    0.7334   60.6670 C.2     1  ZINC000671418508    0.5100
      8 O8         -9.7156    1.9357   60.6268 O.2     1  ZINC000671418508   -0.5100
      9 C9        -10.5428   -0.1736   60.0054 C.2     1  ZINC000671418508    0.5100
     10 O10       -11.5026   -0.5819   60.6256 O.2     1  ZINC000671418508   -0.5200
     11 N11       -10.3664   -0.5382   58.7199 N.am    1  ZINC000671418508   -0.5800
     12 C12       -11.3284   -1.4250   58.0479 C.3     1  ZINC000671418508    0.0800
     13 C13       -11.7471   -0.7754   56.7248 C.3     1  ZINC000671418508    0.0400
     14 N14       -10.5478   -0.4520   55.9406 N.3     1  ZINC000671418508   -0.5200
     15 C15       -10.9086    0.0139   54.5949 C.3     1  ZINC000671418508    0.1300
     16 H16       -11.6243    0.8322   54.6734 H       1  ZINC000671418508    0.0600
     17 C17       -11.5357   -1.1383   53.8074 C.3     1  ZINC000671418508    0.0900
     18 O18       -11.2738   -0.9609   52.4139 O.3     1  ZINC000671418508   -0.5500
     19 C19        -9.6714    0.4951   53.8816 C.ar    1  ZINC000671418508   -0.0800
     20 C20        -9.5655    1.8193   53.4989 C.ar    1  ZINC000671418508   -0.0600
     21 C21        -8.4311    2.2613   52.8445 C.ar    1  ZINC000671418508   -0.1200
     22 C22        -7.4014    1.3782   52.5726 C.ar    1  ZINC000671418508   -0.0300
     23 Cl23       -5.9761    1.9326   51.7512 Cl      1  ZINC000671418508   -0.0700
     24 C24        -7.5079    0.0530   52.9557 C.ar    1  ZINC000671418508   -0.1200
     25 C25        -8.6404   -0.3865   53.6151 C.ar    1  ZINC000671418508   -0.1100
     26 C26        -9.7092    0.5360   56.6325 C.3     1  ZINC000671418508    0.0400
     27 C27        -9.2102   -0.0550   57.9500 C.3     1  ZINC000671418508    0.1100
     28 C28        -6.4250    1.1356   64.3012 C.2     1  ZINC000671418508    0.0700
     29 N29        -6.7399    0.7099   65.4977 N.2     1  ZINC000671418508   -0.2900
     30 H30        -9.3499    0.1979   67.0140 H       1  ZINC000671418508    0.0800
     31 H31        -9.3173   -1.3651   66.1630 H       1  ZINC000671418508    0.0900
     32 H32        -7.9911   -0.9240   67.2652 H       1  ZINC000671418508    0.0900
     33 H33        -9.3447   -0.2409   63.7606 H       1  ZINC000671418508    0.1800
     34 H34        -7.8272    2.1414   61.8107 H       1  ZINC000671418508    0.0800
     35 H35        -6.5366    0.9519   61.5146 H       1  ZINC000671418508    0.0800
     36 H36        -8.3631   -0.7452   61.3412 H       1  ZINC000671418508    0.4100
     37 H37       -10.8609   -2.3897   57.8504 H       1  ZINC000671418508    0.0800
     38 H38       -12.2044   -1.5623   58.6819 H       1  ZINC000671418508    0.1400
     39 H39       -12.3739   -1.4674   56.1623 H       1  ZINC000671418508    0.0900
     40 H40       -12.3057    0.1382   56.9288 H       1  ZINC000671418508    0.0400
     41 H41       -11.1053   -2.0827   54.1406 H       1  ZINC000671418508    0.0500
     42 H42       -12.6125   -1.1501   53.9761 H       1  ZINC000671418508    0.0500
     43 H43       -11.3345   -1.7750   51.8955 H       1  ZINC000671418508    0.3800
     44 H44       -10.3695    2.5086   53.7109 H       1  ZINC000671418508    0.1400
     45 H45        -8.3487    3.2957   52.5453 H       1  ZINC000671418508    0.1300
     46 H46        -6.7046   -0.6369   52.7434 H       1  ZINC000671418508    0.1300
     47 H47        -8.7236   -1.4208   53.9146 H       1  ZINC000671418508    0.1300
     48 H48        -8.8579    0.7951   56.0029 H       1  ZINC000671418508    0.0900
     49 H49       -10.2961    1.4312   56.8377 H       1  ZINC000671418508    0.0400
     50 H50        -8.6838    0.7114   58.5190 H       1  ZINC000671418508    0.1000
     51 H51        -8.5389   -0.8893   57.7462 H       1  ZINC000671418508    0.0800
     52 H52        -5.5200    1.6608   64.0338 H       1  ZINC000671418508    0.1900
@<TRIPOS>BOND
     1     1     2    1
     2     1    30    1
     3     1    31    1
     4     1    32    1
     5     2    29    1
     6     2     3    1
     7     3     4    2
     8     3    33    1
     9     4     5    1
    10     4    28    1
    11     5     6    1
    12     5    34    1
    13     5    35    1
    14     6     7   am
    15     6    36    1
    16     7     8    2
    17     7     9    1
    18     9    10    2
    19     9    11   am
    20    11    27    1
    21    11    12    1
    22    12    13    1
    23    12    37    1
    24    12    38    1
    25    13    14    1
    26    13    39    1
    27    13    40    1
    28    14    15    1
    29    14    26    1
    30    15    16    1
    31    15    17    1
    32    15    19    1
    33    17    18    1
    34    17    41    1
    35    17    42    1
    36    18    43    1
    37    19    25   ar
    38    19    20   ar
    39    20    21   ar
    40    20    44    1
    41    21    22   ar
    42    21    45    1
    43    22    23    1
    44    22    24   ar
    45    24    25   ar
    46    24    46    1
    47    25    47    1
    48    26    27    1
    49    26    48    1
    50    26    49    1
    51    27    50    1
    52    27    51    1
    53    28    29    2
    54    28    52    1
@<TRIPOS>SUBSTRUCTURE
     1 ZINC000671418508        1 TEMP              0 ****  ****    0 ROOT


##########                                Name:    ZINC001707804910
##########                DOCK_Rotatable_Bonds:                   4
##########                         Heavy_Atoms:                  26
##########                    Molecular_Weight:             358.403
##########                DOCK_Rotatable_Bonds:                   4
##########                       Formal_Charge:          -0.0399996
##########                     HBond_Acceptors:                  10
##########                        HBond_Donors:                   0
##########                         Heavy_Atoms:                  26
##########                          Grid_Score:          -30.231079
##########                     Grid_vdw_energy:          -29.382000
##########                      Grid_es_energy:           -0.849080
##########           Internal_energy_repulsive:           12.283068

@<TRIPOS>MOLECULE
ZINC001707804910
 48 51 1 0 0
SMALL
USER_CHARGES


@<TRIPOS>ATOM
      1 C1         -8.1069   -0.3871   59.8046 C.3     1  ZINC001707804910   -0.0700
      2 C2         -7.9797    0.3886   58.5189 C.2     1  ZINC001707804910    0.0700
      3 N3         -6.9896    1.1803   58.1953 N.2     1  ZINC001707804910   -0.2800
      4 N4         -7.2485    1.7076   56.9235 N.pl3   1  ZINC001707804910   -0.3700
      5 C5         -6.3921    2.6398   56.1863 C.3     1  ZINC001707804910    0.0900
      6 C6         -8.4262    1.2049   56.4973 C.2     1  ZINC001707804910    0.0500
      7 C7         -9.0944    1.5021   55.1797 C.3     1  ZINC001707804910    0.1800
      8 N8         -8.6177    0.5577   54.1664 N.pl3   1  ZINC001707804910   -0.4600
      9 C9         -9.1424   -0.6698   53.8701 C.2     1  ZINC001707804910    0.1900
     10 C10       -10.3333   -1.3151   54.5307 C.3     1  ZINC001707804910   -0.0700
     11 N11        -8.4224   -1.1777   52.9104 N.2     1  ZINC001707804910   -0.2800
     12 N12        -7.4856   -0.3609   52.5826 N.2     1  ZINC001707804910   -0.3000
     13 C13        -7.5616    0.7229   53.3183 C.2     1  ZINC001707804910    0.3500
     14 N14        -6.7225    1.8238   53.2523 N.3     1  ZINC001707804910   -0.4600
     15 C15        -7.3730    2.9409   52.5523 C.3     1  ZINC001707804910    0.0200
     16 C16        -6.4366    4.1522   52.5547 C.3     1  ZINC001707804910    0.0700
     17 O17        -5.1918    3.7872   51.9525 O.3     1  ZINC001707804910   -0.3600
     18 C18        -4.5306    2.7026   52.6093 C.3     1  ZINC001707804910    0.2000
     19 H19        -4.3018    2.9845   53.6371 H       1  ZINC001707804910    0.1000
     20 C20        -3.2523    2.3769   51.8805 C.2     1  ZINC001707804910    0.1600
     21 N21        -3.1317    1.5891   50.8501 N.2     1  ZINC001707804910   -0.2500
     22 N22        -1.8976    1.5450   50.4886 N.2     1  ZINC001707804910   -0.2900
     23 C23        -1.1891    2.3032   51.2760 C.2     1  ZINC001707804910    0.1700
     24 C24         0.2987    2.5293   51.1950 C.3     1  ZINC001707804910   -0.0600
     25 O25        -2.0289    2.8505   52.1707 O.3     1  ZINC001707804910   -0.2200
     26 C26        -5.4477    1.4767   52.6076 C.3     1  ZINC001707804910    0.0400
     27 C27        -8.8969    0.3819   57.4629 C.2     1  ZINC001707804910   -0.2300
     28 H28        -7.6393   -1.3646   59.6870 H       1  ZINC001707804910    0.0800
     29 H29        -7.6119    0.1580   60.6084 H       1  ZINC001707804910    0.0700
     30 H30        -9.1614   -0.5157   60.0486 H       1  ZINC001707804910    0.0800
     31 H31        -5.6183    2.0825   55.6581 H       1  ZINC001707804910    0.0800
     32 H32        -6.9942    3.1956   55.4674 H       1  ZINC001707804910    0.0900
     33 H33        -5.9263    3.3352   56.8846 H       1  ZINC001707804910    0.0900
     34 H34       -10.1743    1.4030   55.2895 H       1  ZINC001707804910    0.1100
     35 H35        -8.8525    2.5191   54.8709 H       1  ZINC001707804910    0.1200
     36 H36       -11.2487   -0.9548   54.0613 H       1  ZINC001707804910    0.0900
     37 H37       -10.2690   -2.3973   54.4183 H       1  ZINC001707804910    0.1000
     38 H38       -10.3436   -1.0599   55.5904 H       1  ZINC001707804910    0.0700
     39 H39        -7.5891    2.6499   51.5243 H       1  ZINC001707804910    0.0700
     40 H40        -8.3019    3.1979   53.0614 H       1  ZINC001707804910    0.0900
     41 H41        -6.8910    4.9646   51.9874 H       1  ZINC001707804910    0.1200
     42 H42        -6.2634    4.4763   53.5808 H       1  ZINC001707804910    0.0700
     43 H43         0.5018    3.3817   50.5466 H       1  ZINC001707804910    0.1000
     44 H44         0.6907    2.7297   52.1921 H       1  ZINC001707804910    0.1000
     45 H45         0.7797    1.6401   50.7875 H       1  ZINC001707804910    0.1100
     46 H46        -4.9711    0.6648   53.1571 H       1  ZINC001707804910    0.1000
     47 H47        -5.6329    1.1622   51.5805 H       1  ZINC001707804910    0.0800
     48 H48        -9.8206   -0.1765   57.4271 H       1  ZINC001707804910    0.1500
@<TRIPOS>BOND
     1     1     2    1
     2     1    28    1
     3     1    29    1
     4     1    30    1
     5     2    27    1
     6     2     3    2
     7     3     4    1
     8     4     5    1
     9     4     6    1
    10     5    31    1
    11     5    32    1
    12     5    33    1
    13     6     7    1
    14     6    27    2
    15     7     8    1
    16     7    34    1
    17     7    35    1
    18     8    13    1
    19     8     9    1
    20     9    10    1
    21     9    11    2
    22    10    36    1
    23    10    37    1
    24    10    38    1
    25    11    12    1
    26    12    13    2
    27    13    14    1
    28    14    26    1
    29    14    15    1
    30    15    16    1
    31    15    39    1
    32    15    40    1
    33    16    17    1
    34    16    41    1
    35    16    42    1
    36    17    18    1
    37    18    19    1
    38    18    20    1
    39    18    26    1
    40    20    25    1
    41    20    21    2
    42    21    22    1
    43    22    23    2
    44    23    24    1
    45    23    25    1
    46    24    43    1
    47    24    44    1
    48    24    45    1
    49    26    46    1
    50    26    47    1
    51    27    48    1
@<TRIPOS>SUBSTRUCTURE
     1 ZINC001707804910        1 TEMP              0 ****  ****    0 ROOT


##########                                Name:    ZINC000011972961
##########                DOCK_Rotatable_Bonds:                   6
##########                         Heavy_Atoms:                  28
##########                    Molecular_Weight:             397.501
##########                DOCK_Rotatable_Bonds:                   6
##########                       Formal_Charge:                   0
##########                     HBond_Acceptors:                   8
##########                        HBond_Donors:                   1
##########                         Heavy_Atoms:                  28
##########                          Grid_Score:          -30.212467
##########                     Grid_vdw_energy:          -30.212467
##########                      Grid_es_energy:            0.000000
##########           Internal_energy_repulsive:           22.637331

@<TRIPOS>MOLECULE
ZINC000011972961
 51 54 1 0 0
SMALL
USER_CHARGES


@<TRIPOS>ATOM
      1 C1         -4.8453    4.8003   54.0439 C.3        `      0.0000
      2 C2         -4.7550    3.7148   53.0025 C.2        `      0.0000
      3 C3         -5.8423    3.1313   52.4826 C.2        `      0.0000
      4 C4         -7.2244    3.4636   52.8492 C.2        `      0.0000
      5 O5         -7.7638    4.4412   52.3656 O.2        `      0.0000
      6 N6         -7.8958    2.6859   53.7214 N.am       `      0.0000
      7 C7         -7.2463    1.5088   54.3037 C.3        `      0.0000
      8 C8         -9.2751    3.0175   54.0873 C.3        `      0.0000
      9 H9         -9.5055    4.0462   53.8101 H          `      0.0000
     10 C10       -10.2655    2.0391   53.4102 C.3        `      0.0000
     11 C11       -10.5363    1.0159   54.5426 C.3        `      0.0000
     12 O12       -10.5526    1.8298   55.7351 O.3        `      0.0000
     13 C13        -9.4993    2.8025   55.5966 C.3        `      0.0000
     14 S14        -5.3873    1.9146   51.3020 S.3        `      0.0000
     15 C15        -3.6774    2.2399   51.5526 C.ar       `      0.0000
     16 N16        -2.5854    1.7016   50.9979 N.ar       `      0.0000
     17 C17        -1.3828    2.1040   51.3398 C.ar       `      0.0000
     18 N18        -1.1868    3.0509   52.2392 N.ar       `      0.0000
     19 C19        -2.2033    3.6455   52.8450 C.ar       `      0.0000
     20 N20        -1.9800    4.6334   53.7825 N.pl3      `      0.0000
     21 C21        -0.6101    4.9822   54.1671 C.3        `      0.0000
     22 C22        -0.1119    4.0007   55.1964 C.ar       `      0.0000
     23 N23         1.1771    3.7335   55.2718 N.ar       `      0.0000
     24 C24         1.6582    2.8820   56.1567 C.ar       `      0.0000
     25 C25         3.1401    2.6120   56.2012 C.3        `      0.0000
     26 C26         0.8192    2.2350   57.0438 C.ar       `      0.0000
     27 C27        -0.5428    2.4905   56.9946 C.ar       `      0.0000
     28 C28        -1.0109    3.3951   56.0542 C.ar       `      0.0000
     29 C29        -3.5300    3.2534   52.5097 C.ar       `      0.0000
     30 H30        -4.5197    5.7465   53.6117 H          `      0.0000
     31 H31        -5.8767    4.8923   54.3845 H          `      0.0000
     32 H32        -4.2048    4.5474   54.8889 H          `      0.0000
     33 H33        -6.4180    1.8268   54.9368 H          `      0.0000
     34 H34        -7.9689    0.9540   54.9021 H          `      0.0000
     35 H35        -6.8688    0.8699   53.5052 H          `      0.0000
     36 H36       -11.1830    2.5520   53.1217 H          `      0.0000
     37 H37        -9.8055    1.5537   52.5493 H          `      0.0000
     38 H38       -11.5005    0.5288   54.3972 H          `      0.0000
     39 H39        -9.7359    0.2778   54.5926 H          `      0.0000
     40 H40        -8.5854    2.4272   56.0570 H          `      0.0000
     41 H41        -9.7960    3.7397   56.0675 H          `      0.0000
     42 H42        -0.5257    1.6448   50.8701 H          `      0.0000
     43 H43        -2.7301    5.0968   54.1869 H          `      0.0000
     44 H44         0.0344    4.9460   53.2887 H          `      0.0000
     45 H45        -0.5955    5.9879   54.5873 H          `      0.0000
     46 H46         3.6170    3.3140   56.8851 H          `      0.0000
     47 H47         3.3136    1.5931   56.5472 H          `      0.0000
     48 H48         3.5617    2.7336   55.2034 H          `      0.0000
     49 H49         1.2193    1.5388   57.7661 H          `      0.0000
     50 H50        -1.2224    1.9994   57.6754 H          `      0.0000
     51 H51        -2.0654    3.6184   55.9878 H          `      0.0000
@<TRIPOS>BOND
     1     1     2    1
     2     1    30    1
     3     1    31    1
     4     1    32    1
     5     2    29    1
     6     2     3    2
     7     3     4    1
     8     3    14    1
     9     4     5    2
    10     4     6   am
    11     6     7    1
    12     6     8    1
    13     7    33    1
    14     7    34    1
    15     7    35    1
    16     8     9    1
    17     8    13    1
    18     8    10    1
    19    10    11    1
    20    10    36    1
    21    10    37    1
    22    11    12    1
    23    11    38    1
    24    11    39    1
    25    12    13    1
    26    13    40    1
    27    13    41    1
    28    14    15    1
    29    15    29   ar
    30    15    16   ar
    31    16    17   ar
    32    17    18   ar
    33    17    42    1
    34    18    19   ar
    35    19    20    1
    36    19    29   ar
    37    20    21    1
    38    20    43    1
    39    21    22    1
    40    21    44    1
    41    21    45    1
    42    22    28   ar
    43    22    23   ar
    44    23    24   ar
    45    24    25    1
    46    24    26   ar
    47    25    46    1
    48    25    47    1
    49    25    48    1
    50    26    27   ar
    51    26    49    1
    52    27    28   ar
    53    27    50    1
    54    28    51    1
@<TRIPOS>SUBSTRUCTURE
     1 `        1 TEMP              0 ****  ****    0 ROOT


##########                                Name:    ZINC001312809190
##########                DOCK_Rotatable_Bonds:                   6
##########                         Heavy_Atoms:                  29
##########                    Molecular_Weight:             395.501
##########                DOCK_Rotatable_Bonds:                   6
##########                       Formal_Charge:           0.0199995
##########                     HBond_Acceptors:                   6
##########                        HBond_Donors:                   1
##########                         Heavy_Atoms:                  29
##########                          Grid_Score:          -30.165127
##########                     Grid_vdw_energy:          -30.719469
##########                      Grid_es_energy:            0.554342
##########           Internal_energy_repulsive:           31.165962

@<TRIPOS>MOLECULE
ZINC001312809190
 58 61 1 0 0
SMALL
USER_CHARGES


@<TRIPOS>ATOM
      1 C1        -12.5188   -1.9349   58.6448 C.3     1  ZINC001312809190    0.0300
      2 O2        -11.1293   -1.6588   58.8327 O.3     1  ZINC001312809190   -0.3200
      3 C3        -10.7939   -0.8741   59.8904 C.ar    1  ZINC001312809190    0.1300
      4 C4        -11.7797   -0.3960   60.7411 C.ar    1  ZINC001312809190   -0.2100
      5 C5        -11.4360    0.4011   61.8159 C.ar    1  ZINC001312809190   -0.0800
      6 C6        -10.1110    0.7228   62.0438 C.ar    1  ZINC001312809190   -0.1300
      7 C7         -9.1263    0.2477   61.1968 C.ar    1  ZINC001312809190   -0.0500
      8 C8         -7.6829    0.6006   61.4478 C.3     1  ZINC001312809190    0.1200
      9 H9         -7.0732   -0.3011   61.3910 H       1  ZINC001312809190    0.0500
     10 C10        -7.5444    1.2231   62.8386 C.3     1  ZINC001312809190   -0.1400
     11 N11        -7.2304    1.5624   60.4337 N.3     1  ZINC001312809190   -0.5300
     12 C12        -8.3502    2.3775   59.9445 C.3     1  ZINC001312809190    0.0300
     13 C13        -7.8119    3.4824   59.0292 C.3     1  ZINC001312809190    0.1400
     14 N14        -6.9902    2.8606   57.9798 N.am    1  ZINC001312809190   -0.6300
     15 C15        -7.1995    3.1436   56.6788 C.2     1  ZINC001312809190    0.7100
     16 O16        -8.0771    3.9223   56.3596 O.2     1  ZINC001312809190   -0.5800
     17 N17        -6.4359    2.5636   55.7317 N.am    1  ZINC001312809190   -0.7300
     18 C18        -6.6634    2.8713   54.3176 C.3     1  ZINC001312809190    0.1800
     19 H19        -7.2289    3.7967   54.2083 H       1  ZINC001312809190    0.1200
     20 C20        -5.3513    2.9452   53.5610 C.ar    1  ZINC001312809190   -0.1900
     21 C21        -4.1557    3.5678   53.8424 C.ar    1  ZINC001312809190   -0.0500
     22 C22        -3.0962    3.4617   52.9584 C.ar    1  ZINC001312809190   -0.1500
     23 C23        -3.2435    2.7298   51.7949 C.ar    1  ZINC001312809190   -0.0800
     24 C24        -4.4417    2.1083   51.5094 C.ar    1  ZINC001312809190   -0.1400
     25 C25        -5.5138    2.2128   52.3918 C.ar    1  ZINC001312809190    0.1100
     26 O26        -6.7727    1.7029   52.3005 O.3     1  ZINC001312809190   -0.2900
     27 C27        -7.3788    1.6991   53.6050 C.3     1  ZINC001312809190    0.0800
     28 H28        -7.1830    0.7580   54.1189 H       1  ZINC001312809190    0.0900
     29 C29        -8.8835    1.9564   53.5042 C.3     1  ZINC001312809190   -0.1500
     30 C30        -5.9336    1.9222   58.3877 C.3     1  ZINC001312809190    0.1200
     31 C31        -6.5459    0.8788   59.3282 C.3     1  ZINC001312809190    0.0400
     32 C32        -9.4641   -0.5546   60.1245 C.ar    1  ZINC001312809190   -0.1500
     33 H33       -12.6476   -2.5698   57.7682 H       1  ZINC001312809190    0.1000
     34 H34       -12.9099   -2.4462   59.5244 H       1  ZINC001312809190    0.0600
     35 H35       -13.0585   -0.9994   58.4982 H       1  ZINC001312809190    0.0600
     36 H36       -12.8151   -0.6463   60.5631 H       1  ZINC001312809190    0.1300
     37 H37       -12.2032    0.7736   62.4785 H       1  ZINC001312809190    0.1300
     38 H38        -9.8443    1.3462   62.8843 H       1  ZINC001312809190    0.1300
     39 H39        -8.1541    2.1249   62.8955 H       1  ZINC001312809190    0.0700
     40 H40        -7.8802    0.5095   63.5911 H       1  ZINC001312809190    0.0600
     41 H41        -6.5003    1.4783   63.0201 H       1  ZINC001312809190    0.0600
     42 H42        -9.0420    1.7471   59.3856 H       1  ZINC001312809190    0.0400
     43 H43        -8.8698    2.8271   60.7907 H       1  ZINC001312809190    0.1000
     44 H44        -8.6445    4.0181   58.5732 H       1  ZINC001312809190    0.1000
     45 H45        -7.2020    4.1742   59.6102 H       1  ZINC001312809190    0.0700
     46 H46        -5.7357    1.9426   55.9864 H       1  ZINC001312809190    0.4000
     47 H47        -4.0451    4.1388   54.7523 H       1  ZINC001312809190    0.1200
     48 H48        -2.1575    3.9492   53.1767 H       1  ZINC001312809190    0.1300
     49 H49        -2.4165    2.6444   51.1057 H       1  ZINC001312809190    0.1300
     50 H50        -4.5486    1.5388   50.5980 H       1  ZINC001312809190    0.1300
     51 H51        -9.3497    1.1625   52.9208 H       1  ZINC001312809190    0.0800
     52 H52        -9.3167    1.9748   54.5043 H       1  ZINC001312809190    0.0800
     53 H53        -9.0563    2.9155   53.0158 H       1  ZINC001312809190    0.0700
     54 H54        -5.5244    1.4265   57.5075 H       1  ZINC001312809190    0.0800
     55 H55        -5.1432    2.4641   58.9070 H       1  ZINC001312809190    0.0800
     56 H56        -5.7569    0.2415   59.7274 H       1  ZINC001312809190    0.0900
     57 H57        -7.2628    0.2694   58.7780 H       1  ZINC001312809190    0.0400
     58 H58        -8.6947   -0.9256   59.4636 H       1  ZINC001312809190    0.1300
@<TRIPOS>BOND
     1     1     2    1
     2     1    33    1
     3     1    34    1
     4     1    35    1
     5     2     3    1
     6     3    32   ar
     7     3     4   ar
     8     4     5   ar
     9     4    36    1
    10     5     6   ar
    11     5    37    1
    12     6     7   ar
    13     6    38    1
    14     7     8    1
    15     7    32   ar
    16     8     9    1
    17     8    10    1
    18     8    11    1
    19    10    39    1
    20    10    40    1
    21    10    41    1
    22    11    31    1
    23    11    12    1
    24    12    13    1
    25    12    42    1
    26    12    43    1
    27    13    14    1
    28    13    44    1
    29    13    45    1
    30    14    15   am
    31    14    30    1
    32    15    16    2
    33    15    17   am
    34    17    18    1
    35    17    46    1
    36    18    19    1
    37    18    27    1
    38    18    20    1
    39    20    25   ar
    40    20    21   ar
    41    21    22   ar
    42    21    47    1
    43    22    23   ar
    44    22    48    1
    45    23    24   ar
    46    23    49    1
    47    24    25   ar
    48    24    50    1
    49    25    26    1
    50    26    27    1
    51    27    28    1
    52    27    29    1
    53    29    51    1
    54    29    52    1
    55    29    53    1
    56    30    31    1
    57    30    54    1
    58    30    55    1
    59    31    56    1
    60    31    57    1
    61    32    58    1
@<TRIPOS>SUBSTRUCTURE
     1 ZINC001312809190        1 TEMP              0 ****  ****    0 ROOT


##########                                Name:    ZINC000848949366
##########                DOCK_Rotatable_Bonds:                   8
##########                         Heavy_Atoms:                  25
##########                    Molecular_Weight:             368.773
##########                DOCK_Rotatable_Bonds:                   8
##########                       Formal_Charge:          0.00999947
##########                     HBond_Acceptors:                   9
##########                        HBond_Donors:                   3
##########                         Heavy_Atoms:                  25
##########                          Grid_Score:          -30.162218
##########                     Grid_vdw_energy:          -29.612358
##########                      Grid_es_energy:           -0.549860
##########           Internal_energy_repulsive:           16.305374

@<TRIPOS>MOLECULE
ZINC000848949366
 42 43 1 0 0
SMALL
USER_CHARGES


@<TRIPOS>ATOM
      1 C1         -6.9575    2.1450   57.4378 C.3     1  ZINC000848949366   -0.1500
      2 C2         -6.5243    3.2211   56.4401 C.3     1  ZINC000848949366    0.0600
      3 O3         -5.9500    2.5994   55.2887 O.3     1  ZINC000848949366   -0.3500
      4 C4         -5.5768    3.4105   54.2767 C.2     1  ZINC000848949366    0.5400
      5 O5         -6.0618    4.5220   54.1774 O.2     1  ZINC000848949366   -0.4800
      6 C6         -4.6217    2.9685   53.3315 C.2     1  ZINC000848949366   -0.2300
      7 C7         -3.3817    3.5015   53.2904 C.2     1  ZINC000848949366    0.2000
      8 C8         -3.0081    4.5858   54.2682 C.3     1  ZINC000848949366    0.1000
      9 O9         -1.5739    4.5614   54.4934 O.3     1  ZINC000848949366   -0.3500
     10 C10        -1.1048    3.6325   55.3496 C.2     1  ZINC000848949366    0.5100
     11 O11        -1.8797    2.9310   55.9695 O.2     1  ZINC000848949366   -0.4800
     12 C12         0.3477    3.4674   55.5341 C.ar    1  ZINC000848949366   -0.1600
     13 C13         1.2434    4.1966   54.7472 C.ar    1  ZINC000848949366   -0.0300
     14 C14         2.6002    4.0378   54.9243 C.ar    1  ZINC000848949366   -0.1300
     15 C15         3.0824    3.1569   55.8806 C.ar    1  ZINC000848949366    0.0200
     16 Cl16        4.7948    2.9662   56.0929 Cl      1  ZINC000848949366   -0.0500
     17 C17         2.2073    2.4299   56.6660 C.ar    1  ZINC000848949366   -0.1500
     18 C18         0.8390    2.5818   56.5047 C.ar    1  ZINC000848949366    0.1900
     19 O19        -0.0208    1.8692   57.2744 O.3     1  ZINC000848949366   -0.4700
     20 N20        -2.4604    3.0736   52.3777 N.am    1  ZINC000848949366   -0.6400
     21 C21        -2.7014    2.1174   51.4719 C.2     1  ZINC000848949366    0.7100
     22 O22        -1.8170    1.8033   50.6992 O.2     1  ZINC000848949366   -0.5600
     23 N23        -3.8921    1.4916   51.3891 N.am    1  ZINC000848949366   -0.7100
     24 C24        -4.9534    1.8766   52.3347 C.3     1  ZINC000848949366    0.2000
     25 H25        -5.2497    0.9855   52.8881 H       1  ZINC000848949366    0.0900
     26 C26        -6.1618    2.3455   51.5220 C.3     1  ZINC000848949366   -0.1700
     27 H27        -7.3957    2.6191   58.3161 H       1  ZINC000848949366    0.0800
     28 H28        -7.6953    1.4925   56.9710 H       1  ZINC000848949366    0.0700
     29 H29        -6.0900    1.5568   57.7372 H       1  ZINC000848949366    0.0700
     30 H30        -7.3919    3.8092   56.1407 H       1  ZINC000848949366    0.0700
     31 H31        -5.7865    3.8735   56.9070 H       1  ZINC000848949366    0.0700
     32 H32        -3.2957    5.5558   53.8625 H       1  ZINC000848949366    0.1100
     33 H33        -3.5270    4.4184   55.2120 H       1  ZINC000848949366    0.1000
     34 H34         0.8723    4.8833   54.0008 H       1  ZINC000848949366    0.1500
     35 H35         3.2914    4.6017   54.3156 H       1  ZINC000848949366    0.1500
     36 H36         2.5902    1.7456   57.4086 H       1  ZINC000848949366    0.1500
     37 H37         0.4122    1.3138   57.9372 H       1  ZINC000848949366    0.4000
     38 H38        -1.5823    3.4857   52.3858 H       1  ZINC000848949366    0.4300
     39 H39        -4.0453    0.8017   50.7247 H       1  ZINC000848949366    0.4400
     40 H40        -6.5051    1.5341   50.8801 H       1  ZINC000848949366    0.0700
     41 H41        -6.9643    2.6372   52.1996 H       1  ZINC000848949366    0.0700
     42 H42        -5.8771    3.1994   50.9072 H       1  ZINC000848949366    0.0700
@<TRIPOS>BOND
     1     1     2    1
     2     1    27    1
     3     1    28    1
     4     1    29    1
     5     2     3    1
     6     2    30    1
     7     2    31    1
     8     3     4    1
     9     4     5    2
    10     4     6    1
    11     6    24    1
    12     6     7    2
    13     7     8    1
    14     7    20    1
    15     8     9    1
    16     8    32    1
    17     8    33    1
    18     9    10    1
    19    10    11    2
    20    10    12    1
    21    12    18   ar
    22    12    13   ar
    23    13    14   ar
    24    13    34    1
    25    14    15   ar
    26    14    35    1
    27    15    16    1
    28    15    17   ar
    29    17    18   ar
    30    17    36    1
    31    18    19    1
    32    19    37    1
    33    20    21   am
    34    20    38    1
    35    21    22    2
    36    21    23   am
    37    23    24    1
    38    23    39    1
    39    24    25    1
    40    24    26    1
    41    26    40    1
    42    26    41    1
    43    26    42    1
@<TRIPOS>SUBSTRUCTURE
     1 ZINC000848949366        1 TEMP              0 ****  ****    0 ROOT


##########                                Name:    ZINC000821177065
##########                DOCK_Rotatable_Bonds:                  10
##########                         Heavy_Atoms:                  25
##########                    Molecular_Weight:             341.413
##########                DOCK_Rotatable_Bonds:                  10
##########                       Formal_Charge:          0.00999917
##########                     HBond_Acceptors:                   7
##########                        HBond_Donors:                   3
##########                         Heavy_Atoms:                  25
##########                          Grid_Score:          -30.156090
##########                     Grid_vdw_energy:          -28.370354
##########                      Grid_es_energy:           -1.785736
##########           Internal_energy_repulsive:           18.845720

@<TRIPOS>MOLECULE
ZINC000821177065
 48 51 1 0 0
SMALL
USER_CHARGES


@<TRIPOS>ATOM
      1 O1         -6.1126    1.3658   57.9062 O.2     1  ZINC000821177065   -0.5600
      2 C2         -6.0722    2.1810   58.8075 C.2     1  ZINC000821177065    0.7100
      3 N3         -6.6260    1.8929   60.0020 N.am    1  ZINC000821177065   -0.7300
      4 C4         -7.2818    0.5999   60.2126 C.3     1  ZINC000821177065    0.1200
      5 C5         -8.2334    0.6991   61.4066 C.3     1  ZINC000821177065    0.1900
      6 O6         -9.2227   -0.3279   61.3139 O.3     1  ZINC000821177065   -0.5400
      7 C7         -7.4420    0.5294   62.7049 C.3     1  ZINC000821177065   -0.1500
      8 C8         -7.5507    1.6425   63.7491 C.3     1  ZINC000821177065   -0.1600
      9 C9         -8.2369    0.2966   63.9914 C.3     1  ZINC000821177065   -0.1700
     10 C10        -8.9172    2.0679   61.4013 C.3     1  ZINC000821177065   -0.1800
     11 C11       -10.1300    2.2482   60.4865 C.3     1  ZINC000821177065   -0.1900
     12 C12       -10.3216    2.1583   62.0017 C.3     1  ZINC000821177065   -0.1700
     13 N13        -5.4690    3.3705   58.6138 N.am    1  ZINC000821177065   -0.6500
     14 C14        -4.8929    3.6702   57.3712 C.2     1  ZINC000821177065    0.3200
     15 N15        -5.5430    3.8831   56.2516 N.2     1  ZINC000821177065   -0.3200
     16 N16        -4.6052    4.1487   55.2456 N.pl3   1  ZINC000821177065   -0.3600
     17 C17        -4.9079    4.4410   53.8424 C.3     1  ZINC000821177065    0.1900
     18 C18        -5.1503    3.1513   53.1016 C.ar    1  ZINC000821177065    0.1100
     19 C19        -4.3170    2.7959   52.0582 C.ar    1  ZINC000821177065   -0.1500
     20 C20        -4.5486    1.6069   51.3832 C.ar    1  ZINC000821177065   -0.0700
     21 C21        -5.6143    0.8168   51.7852 C.ar    1  ZINC000821177065   -0.1700
     22 C22        -6.4051    1.2374   52.8380 C.ar    1  ZINC000821177065    0.1000
     23 N23        -6.1523    2.3721   53.4601 N.ar    1  ZINC000821177065   -0.4700
     24 C24        -3.3741    4.0888   55.7954 C.2     1  ZINC000821177065    0.0700
     25 C25        -3.5199    3.8009   57.1087 C.2     1  ZINC000821177065   -0.2600
     26 H26        -6.5903    2.5416   60.7223 H       1  ZINC000821177065    0.4000
     27 H27        -7.8459    0.3289   59.3200 H       1  ZINC000821177065    0.0700
     28 H28        -6.5279   -0.1619   60.4112 H       1  ZINC000821177065    0.0800
     29 H29        -8.8673   -1.2242   61.3870 H       1  ZINC000821177065    0.3800
     30 H30        -6.4822    0.0221   62.6076 H       1  ZINC000821177065    0.1100
     31 H31        -6.6622    1.8677   64.3389 H       1  ZINC000821177065    0.0900
     32 H32        -8.1860    2.4956   63.5110 H       1  ZINC000821177065    0.1100
     33 H33        -9.3236    0.2642   63.9127 H       1  ZINC000821177065    0.1000
     34 H34        -7.7998   -0.3636   64.7405 H       1  ZINC000821177065    0.0900
     35 H35        -8.2562    2.9240   61.5360 H       1  ZINC000821177065    0.1100
     36 H36       -10.2672    3.2232   60.0188 H       1  ZINC000821177065    0.1000
     37 H37       -10.4410    1.3918   59.8882 H       1  ZINC000821177065    0.1100
     38 H38       -10.7584    1.2427   62.4004 H       1  ZINC000821177065    0.0900
     39 H39       -10.5846    3.0741   62.5311 H       1  ZINC000821177065    0.1000
     40 H40        -5.4333    4.0192   59.3341 H       1  ZINC000821177065    0.4100
     41 H41        -5.7992    5.0658   53.7854 H       1  ZINC000821177065    0.1000
     42 H42        -4.0663    4.9666   53.3910 H       1  ZINC000821177065    0.1200
     43 H43        -3.4959    3.4364   51.7716 H       1  ZINC000821177065    0.1400
     44 H44        -3.9138    1.3037   50.5636 H       1  ZINC000821177065    0.1400
     45 H45        -5.8243   -0.1156   51.2821 H       1  ZINC000821177065    0.1400
     46 H46        -7.2376    0.6278   53.1570 H       1  ZINC000821177065    0.1600
     47 H47        -2.4388    4.2473   55.2792 H       1  ZINC000821177065    0.1800
     48 H48        -2.7214    3.6848   57.8267 H       1  ZINC000821177065    0.1700
@<TRIPOS>BOND
     1     1     2    2
     2     2     3   am
     3     2    13   am
     4     3     4    1
     5     3    26    1
     6     4     5    1
     7     4    27    1
     8     4    28    1
     9     5     6    1
    10     5     7    1
    11     5    10    1
    12     6    29    1
    13     7     9    1
    14     7     8    1
    15     7    30    1
    16     8     9    1
    17     8    31    1
    18     8    32    1
    19     9    33    1
    20     9    34    1
    21    10    12    1
    22    10    11    1
    23    10    35    1
    24    11    12    1
    25    11    36    1
    26    11    37    1
    27    12    38    1
    28    12    39    1
    29    13    14    1
    30    13    40    1
    31    14    25    1
    32    14    15    2
    33    15    16    1
    34    16    17    1
    35    16    24    1
    36    17    18    1
    37    17    41    1
    38    17    42    1
    39    18    23   ar
    40    18    19   ar
    41    19    20   ar
    42    19    43    1
    43    20    21   ar
    44    20    44    1
    45    21    22   ar
    46    21    45    1
    47    22    23   ar
    48    22    46    1
    49    24    25    2
    50    24    47    1
    51    25    48    1
@<TRIPOS>SUBSTRUCTURE
     1 ZINC000821177065        1 TEMP              0 ****  ****    0 ROOT


##########                                Name:    ZINC000537799672
##########                DOCK_Rotatable_Bonds:                   9
##########                         Heavy_Atoms:                  29
##########                    Molecular_Weight:             401.478
##########                DOCK_Rotatable_Bonds:                   9
##########                       Formal_Charge:        -4.47035e-07
##########                     HBond_Acceptors:                   6
##########                        HBond_Donors:                   1
##########                         Heavy_Atoms:                  29
##########                          Grid_Score:          -30.112032
##########                     Grid_vdw_energy:          -28.510183
##########                      Grid_es_energy:           -1.601848
##########           Internal_energy_repulsive:           15.533614

@<TRIPOS>MOLECULE
ZINC000537799672
 57 59 1 0 0
SMALL
USER_CHARGES


@<TRIPOS>ATOM
      1 C1        -10.0462   -0.4059   60.8253 C.3     1  ZINC000537799672    0.0300
      2 O2         -8.8437    0.3231   60.5708 O.3     1  ZINC000537799672   -0.3800
      3 C3         -8.7754    1.5837   61.2402 C.3     1  ZINC000537799672    0.1200
      4 H4         -9.6893    2.1463   61.0495 H       1  ZINC000537799672    0.0900
      5 C5         -8.6246    1.3578   62.7225 C.ar    1  ZINC000537799672   -0.1300
      6 C6         -7.4433    0.8465   63.2266 C.ar    1  ZINC000537799672   -0.0600
      7 C7         -7.3038    0.6389   64.5858 C.ar    1  ZINC000537799672   -0.1500
      8 C8         -8.3478    0.9436   65.4428 C.ar    1  ZINC000537799672    0.1000
      9 F9         -8.2124    0.7414   66.7717 F       1  ZINC000537799672   -0.1400
     10 C10        -9.5303    1.4561   64.9368 C.ar    1  ZINC000537799672   -0.1500
     11 C11        -9.6658    1.6673   63.5778 C.ar    1  ZINC000537799672   -0.0800
     12 C12        -7.5726    2.3731   60.7197 C.3     1  ZINC000537799672    0.1600
     13 H13        -6.6537    1.8445   60.9731 H       1  ZINC000537799672    0.1000
     14 C14        -7.5565    3.7611   61.3633 C.3     1  ZINC000537799672   -0.1600
     15 N15        -7.6714    2.5109   59.2645 N.am    1  ZINC000537799672   -0.7100
     16 C16        -6.9386    1.7148   58.4611 C.2     1  ZINC000537799672    0.5600
     17 O17        -6.1967    0.8817   58.9437 O.2     1  ZINC000537799672   -0.5400
     18 C18        -7.0370    1.8549   56.9925 C.ar    1  ZINC000537799672   -0.1400
     19 C19        -5.9412    2.3085   56.2568 C.ar    1  ZINC000537799672   -0.0800
     20 C20        -6.0395    2.4365   54.8865 C.ar    1  ZINC000537799672   -0.1300
     21 C21        -7.2210    2.1168   54.2418 C.ar    1  ZINC000537799672   -0.0900
     22 C22        -8.3113    1.6669   54.9654 C.ar    1  ZINC000537799672   -0.1100
     23 C23        -8.2244    1.5286   56.3352 C.ar    1  ZINC000537799672   -0.0300
     24 C24        -9.4127    1.0380   57.1216 C.3     1  ZINC000537799672    0.1100
     25 O25       -10.1527    0.1037   56.3332 O.3     1  ZINC000537799672   -0.3800
     26 C26       -10.6736   -1.0000   57.0768 C.3     1  ZINC000537799672    0.0900
     27 C27       -12.0548   -1.3780   56.5330 C.3     1  ZINC000537799672   -0.1800
     28 C28       -12.5702   -2.6093   57.2824 C.3     1  ZINC000537799672    0.0600
     29 O29       -11.6358   -3.6805   57.1357 O.3     1  ZINC000537799672   -0.3800
     30 C30       -10.3398   -3.4014   57.6693 C.3     1  ZINC000537799672    0.0600
     31 C31        -9.7347   -2.2019   56.9353 C.3     1  ZINC000537799672   -0.1500
     32 H32       -10.9066    0.2109   60.5660 H       1  ZINC000537799672    0.0500
     33 H33       -10.0551   -1.3139   60.2225 H       1  ZINC000537799672    0.0900
     34 H34       -10.0940   -0.6705   61.8816 H       1  ZINC000537799672    0.0400
     35 H35        -6.6291    0.6089   62.5579 H       1  ZINC000537799672    0.1300
     36 H36        -6.3810    0.2388   64.9793 H       1  ZINC000537799672    0.1400
     37 H37       -10.3454    1.6938   65.6044 H       1  ZINC000537799672    0.1400
     38 H38       -10.5880    2.0673   63.1830 H       1  ZINC000537799672    0.1300
     39 H39        -7.5781    3.6588   62.4483 H       1  ZINC000537799672    0.0700
     40 H40        -6.6503    4.2890   61.0662 H       1  ZINC000537799672    0.0600
     41 H41        -8.4296    4.3245   61.0342 H       1  ZINC000537799672    0.0700
     42 H42        -8.2643    3.1749   58.8794 H       1  ZINC000537799672    0.4000
     43 H43        -5.0185    2.5591   56.7590 H       1  ZINC000537799672    0.1300
     44 H44        -5.1922    2.7874   54.3160 H       1  ZINC000537799672    0.1300
     45 H45        -7.2927    2.2191   53.1691 H       1  ZINC000537799672    0.1300
     46 H46        -9.2310    1.4194   54.4563 H       1  ZINC000537799672    0.1400
     47 H47        -9.0687    0.5513   58.0342 H       1  ZINC000537799672    0.0800
     48 H48       -10.0517    1.8827   57.3790 H       1  ZINC000537799672    0.0800
     49 H49       -10.7572   -0.7243   58.1281 H       1  ZINC000537799672    0.0600
     50 H50       -12.7443   -0.5468   56.6802 H       1  ZINC000537799672    0.0800
     51 H51       -11.9779   -1.6047   55.4695 H       1  ZINC000537799672    0.0800
     52 H52       -12.6854   -2.3696   58.3395 H       1  ZINC000537799672    0.0500
     53 H53       -13.5340   -2.9086   56.8704 H       1  ZINC000537799672    0.1000
     54 H54       -10.4257   -3.1720   58.7315 H       1  ZINC000537799672    0.0500
     55 H55        -9.6967   -4.2713   57.5360 H       1  ZINC000537799672    0.1000
     56 H56        -9.6111   -2.4452   55.8800 H       1  ZINC000537799672    0.0800
     57 H57        -8.7650   -1.9599   57.3704 H       1  ZINC000537799672    0.0800
@<TRIPOS>BOND
     1     1     2    1
     2     1    32    1
     3     1    33    1
     4     1    34    1
     5     2     3    1
     6     3     4    1
     7     3     5    1
     8     3    12    1
     9     5    11   ar
    10     5     6   ar
    11     6     7   ar
    12     6    35    1
    13     7     8   ar
    14     7    36    1
    15     8     9    1
    16     8    10   ar
    17    10    11   ar
    18    10    37    1
    19    11    38    1
    20    12    13    1
    21    12    14    1
    22    12    15    1
    23    14    39    1
    24    14    40    1
    25    14    41    1
    26    15    16   am
    27    15    42    1
    28    16    17    2
    29    16    18    1
    30    18    23   ar
    31    18    19   ar
    32    19    20   ar
    33    19    43    1
    34    20    21   ar
    35    20    44    1
    36    21    22   ar
    37    21    45    1
    38    22    23   ar
    39    22    46    1
    40    23    24    1
    41    24    25    1
    42    24    47    1
    43    24    48    1
    44    25    26    1
    45    26    31    1
    46    26    27    1
    47    26    49    1
    48    27    28    1
    49    27    50    1
    50    27    51    1
    51    28    29    1
    52    28    52    1
    53    28    53    1
    54    29    30    1
    55    30    31    1
    56    30    54    1
    57    30    55    1
    58    31    56    1
    59    31    57    1
@<TRIPOS>SUBSTRUCTURE
     1 ZINC000537799672        1 TEMP              0 ****  ****    0 ROOT


##########                                Name:    ZINC000077537368
##########                DOCK_Rotatable_Bonds:                   5
##########                         Heavy_Atoms:                  27
##########                    Molecular_Weight:             365.478
##########                DOCK_Rotatable_Bonds:                   5
##########                       Formal_Charge:          -0.0400007
##########                     HBond_Acceptors:                   6
##########                        HBond_Donors:                   0
##########                         Heavy_Atoms:                  27
##########                          Grid_Score:          -30.109354
##########                     Grid_vdw_energy:          -30.438828
##########                      Grid_es_energy:            0.329474
##########           Internal_energy_repulsive:           11.559909

@<TRIPOS>MOLECULE
ZINC000077537368
 54 56 1 0 0
SMALL
USER_CHARGES


@<TRIPOS>ATOM
      1 C1        -13.5235   -0.4165   59.6690 C.3     1  ZINC000077537368    0.0800
      2 N2        -12.2319   -0.1744   60.3164 N.pl3   1  ZINC000077537368   -0.2600
      3 N3        -12.0293    0.6532   61.2776 N.2     1  ZINC000077537368   -0.2700
      4 C4        -10.7727    0.6461   61.6433 C.2     1  ZINC000077537368    0.0400
      5 C5        -10.1623    1.4838   62.7372 C.3     1  ZINC000077537368    0.0200
      6 C6        -11.2250    1.7978   63.7923 C.3     1  ZINC000077537368   -0.1400
      7 C7         -9.0107    0.7138   63.3868 C.3     1  ZINC000077537368   -0.1400
      8 C8         -9.6315    2.7902   62.1434 C.3     1  ZINC000077537368   -0.1400
      9 C9        -10.0980   -0.2760   60.8401 C.2     1  ZINC000077537368   -0.2000
     10 C10       -11.0604   -0.7987   59.9939 C.2     1  ZINC000077537368   -0.0400
     11 C11       -10.8602   -1.8163   58.9499 C.2     1  ZINC000077537368    0.5900
     12 O12       -11.3583   -2.9192   59.0722 O.2     1  ZINC000077537368   -0.5400
     13 N13       -10.1248   -1.5262   57.8583 N.am    1  ZINC000077537368   -0.6000
     14 C14        -9.9172   -2.5265   56.8003 C.3     1  ZINC000077537368    0.0800
     15 C15       -10.2771   -1.8916   55.4528 C.3     1  ZINC000077537368    0.0400
     16 N16        -9.5202   -0.6438   55.2852 N.3     1  ZINC000077537368   -0.5300
     17 C17        -9.7053   -0.0931   53.9361 C.3     1  ZINC000077537368    0.0900
     18 C18        -8.3688    0.3166   53.3730 C.ar    1  ZINC000077537368   -0.0500
     19 C19        -7.9007    1.6027   53.5766 C.ar    1  ZINC000077537368   -0.1200
     20 C20        -6.6784    1.9844   53.0637 C.ar    1  ZINC000077537368   -0.0700
     21 C21        -5.9129    1.0695   52.3380 C.ar    1  ZINC000077537368   -0.0300
     22 C22        -4.6429    1.4588   51.8031 C.1     1  ZINC000077537368    0.2500
     23 N23        -3.6353    1.7676   51.3787 N.1     1  ZINC000077537368   -0.4100
     24 C24        -6.3911   -0.2268   52.1367 C.ar    1  ZINC000077537368   -0.0700
     25 C25        -7.6128   -0.5968   52.6598 C.ar    1  ZINC000077537368   -0.1000
     26 C26        -9.8847    0.3424   56.3111 C.3     1  ZINC000077537368    0.0400
     27 C27        -9.5137   -0.1989   57.6908 C.3     1  ZINC000077537368    0.1200
     28 H28       -14.0040   -1.2804   60.1283 H       1  ZINC000077537368    0.0800
     29 H29       -14.1603    0.4600   59.7895 H       1  ZINC000077537368    0.1000
     30 H30       -13.3676   -0.6091   58.6076 H       1  ZINC000077537368    0.1100
     31 H31       -11.6031    0.8671   64.2153 H       1  ZINC000077537368    0.0600
     32 H32       -10.7834    2.4036   64.5836 H       1  ZINC000077537368    0.0600
     33 H33       -12.0453    2.3464   63.3295 H       1  ZINC000077537368    0.0600
     34 H34        -8.2537    0.4901   62.6351 H       1  ZINC000077537368    0.0600
     35 H35        -8.5692    1.3196   64.1781 H       1  ZINC000077537368    0.0600
     36 H36        -9.3889   -0.2169   63.8097 H       1  ZINC000077537368    0.0600
     37 H37       -10.4519    3.3387   61.6807 H       1  ZINC000077537368    0.0600
     38 H38        -9.1900    3.3960   62.9348 H       1  ZINC000077537368    0.0600
     39 H39        -8.8744    2.5664   61.3919 H       1  ZINC000077537368    0.0600
     40 H40        -9.0488   -0.5300   60.8745 H       1  ZINC000077537368    0.1700
     41 H41        -8.8727   -2.8381   56.7908 H       1  ZINC000077537368    0.0800
     42 H42       -10.5580   -3.3894   56.9813 H       1  ZINC000077537368    0.1200
     43 H43       -10.0250   -2.5810   54.6471 H       1  ZINC000077537368    0.0900
     44 H44       -11.3452   -1.6754   55.4264 H       1  ZINC000077537368    0.0400
     45 H45       -10.1537   -0.8501   53.2929 H       1  ZINC000077537368    0.0900
     46 H46       -10.3606    0.7765   53.9854 H       1  ZINC000077537368    0.0500
     47 H47        -8.4938    2.3093   54.1381 H       1  ZINC000077537368    0.1300
     48 H48        -6.3145    2.9888   53.2227 H       1  ZINC000077537368    0.1300
     49 H49        -5.8040   -0.9394   51.5765 H       1  ZINC000077537368    0.1300
     50 H50        -7.9838   -1.5992   52.5052 H       1  ZINC000077537368    0.1400
     51 H51        -9.3479    1.2732   56.1278 H       1  ZINC000077537368    0.1000
     52 H52       -10.9581    0.5274   56.2727 H       1  ZINC000077537368    0.0400
     53 H53        -9.8850    0.4768   58.4612 H       1  ZINC000077537368    0.1000
     54 H54        -8.4303   -0.2886   57.7698 H       1  ZINC000077537368    0.0800
@<TRIPOS>BOND
     1     1     2    1
     2     1    28    1
     3     1    29    1
     4     1    30    1
     5     2    10    1
     6     2     3    1
     7     3     4    2
     8     4     5    1
     9     4     9    1
    10     5     6    1
    11     5     7    1
    12     5     8    1
    13     6    31    1
    14     6    32    1
    15     6    33    1
    16     7    34    1
    17     7    35    1
    18     7    36    1
    19     8    37    1
    20     8    38    1
    21     8    39    1
    22     9    10    2
    23     9    40    1
    24    10    11    1
    25    11    12    2
    26    11    13   am
    27    13    27    1
    28    13    14    1
    29    14    15    1
    30    14    41    1
    31    14    42    1
    32    15    16    1
    33    15    43    1
    34    15    44    1
    35    16    17    1
    36    16    26    1
    37    17    18    1
    38    17    45    1
    39    17    46    1
    40    18    25   ar
    41    18    19   ar
    42    19    20   ar
    43    19    47    1
    44    20    21   ar
    45    20    48    1
    46    21    22    1
    47    21    24   ar
    48    22    23    3
    49    24    25   ar
    50    24    49    1
    51    25    50    1
    52    26    27    1
    53    26    51    1
    54    26    52    1
    55    27    53    1
    56    27    54    1
@<TRIPOS>SUBSTRUCTURE
     1 ZINC000077537368        1 TEMP              0 ****  ****    0 ROOT


##########                                Name:    ZINC000816269301
##########                DOCK_Rotatable_Bonds:                   7
##########                         Heavy_Atoms:                  25
##########                    Molecular_Weight:             358.784
##########                DOCK_Rotatable_Bonds:                   7
##########                       Formal_Charge:           0.0100002
##########                     HBond_Acceptors:                   8
##########                        HBond_Donors:                   1
##########                         Heavy_Atoms:                  25
##########                          Grid_Score:          -30.109226
##########                     Grid_vdw_energy:          -30.181982
##########                      Grid_es_energy:            0.072755
##########           Internal_energy_repulsive:            5.630643

@<TRIPOS>MOLECULE
ZINC000816269301
 40 42 1 0 0
SMALL
USER_CHARGES


@<TRIPOS>ATOM
      1 C1         -7.0822    2.5655   52.5966 C.3     1  ZINC000816269301    0.1000
      2 N2         -5.7550    2.3970   51.9994 N.pl3   1  ZINC000816269301   -0.4000
      3 N3         -5.4529    1.7241   50.8068 N.2     1  ZINC000816269301    0.0000
      4 N4         -4.1856    1.7769   50.5927 N.2     1  ZINC000816269301   -0.2000
      5 C5         -3.5729    2.4619   51.5875 C.ar    1  ZINC000816269301   -0.0300
      6 C6         -2.2393    2.7997   51.8321 C.ar    1  ZINC000816269301    0.0500
      7 C7         -1.9143    3.5292   52.9696 C.ar    1  ZINC000816269301   -0.1400
      8 C8         -0.5081    3.8901   53.2346 C.2     1  ZINC000816269301    0.5200
      9 O9         -0.1656    4.2186   54.3529 O.2     1  ZINC000816269301   -0.5000
     10 O10         0.3960    3.8551   52.2363 O.3     1  ZINC000816269301   -0.3500
     11 C11         1.6643    4.5216   52.4718 C.3     1  ZINC000816269301    0.0500
     12 C12         2.5260    4.4389   51.2103 C.3     1  ZINC000816269301    0.1200
     13 N13         2.7883    3.0338   50.8894 N.am    1  ZINC000816269301   -0.7200
     14 C14         2.9013    2.6459   49.6035 C.2     1  ZINC000816269301    0.5600
     15 O15         2.7870    3.4624   48.7102 O.2     1  ZINC000816269301   -0.5300
     16 C16         3.1642    1.2282   49.2798 C.ar    1  ZINC000816269301   -0.1300
     17 C17         3.1887    0.8060   47.9493 C.ar    1  ZINC000816269301   -0.0700
     18 C18         3.4345   -0.5183   47.6534 C.ar    1  ZINC000816269301   -0.1200
     19 C19         3.6568   -1.4289   48.6732 C.ar    1  ZINC000816269301   -0.0100
     20 Cl20        3.9661   -3.0943   48.2930 Cl      1  ZINC000816269301   -0.0600
     21 C21         3.6337   -1.0159   49.9952 C.ar    1  ZINC000816269301   -0.1200
     22 C22         3.3947    0.3067   50.3031 C.ar    1  ZINC000816269301   -0.0500
     23 C23        -2.9179    3.9241   53.8666 C.ar    1  ZINC000816269301   -0.0200
     24 C24        -4.2202    3.5975   53.6333 C.ar    1  ZINC000816269301   -0.1300
     25 C25        -4.5668    2.8721   52.4958 C.ar    1  ZINC000816269301    0.1100
     26 H26        -7.5388    3.4789   52.2153 H       1  ZINC000816269301    0.0900
     27 H27        -7.7080    1.7112   52.3382 H       1  ZINC000816269301    0.1000
     28 H28        -6.9872    2.6317   53.6804 H       1  ZINC000816269301    0.1000
     29 H29        -1.4660    2.4957   51.1420 H       1  ZINC000816269301    0.1600
     30 H30         1.4845    5.5674   52.7211 H       1  ZINC000816269301    0.0800
     31 H31         2.1824    4.0350   53.2982 H       1  ZINC000816269301    0.1000
     32 H32         1.9999    4.9092   50.3794 H       1  ZINC000816269301    0.1000
     33 H33         3.4706    4.9551   51.3810 H       1  ZINC000816269301    0.0900
     34 H34         2.8808    2.3825   51.6023 H       1  ZINC000816269301    0.4000
     35 H35         3.0151    1.5150   47.1533 H       1  ZINC000816269301    0.1400
     36 H36         3.4534   -0.8462   46.6245 H       1  ZINC000816269301    0.1400
     37 H37         3.8077   -1.7305   50.7861 H       1  ZINC000816269301    0.1400
     38 H38         3.3773    0.6277   51.3342 H       1  ZINC000816269301    0.1500
     39 H39        -2.6566    4.4904   54.7484 H       1  ZINC000816269301    0.1500
     40 H40        -4.9860    3.9060   54.3296 H       1  ZINC000816269301    0.1400
@<TRIPOS>BOND
     1     1     2    1
     2     1    26    1
     3     1    27    1
     4     1    28    1
     5     2    25    1
     6     2     3    1
     7     3     4    2
     8     4     5    1
     9     5    25   ar
    10     5     6   ar
    11     6     7   ar
    12     6    29    1
    13     7     8    1
    14     7    23   ar
    15     8     9    2
    16     8    10    1
    17    10    11    1
    18    11    12    1
    19    11    30    1
    20    11    31    1
    21    12    13    1
    22    12    32    1
    23    12    33    1
    24    13    14   am
    25    13    34    1
    26    14    15    2
    27    14    16    1
    28    16    22   ar
    29    16    17   ar
    30    17    18   ar
    31    17    35    1
    32    18    19   ar
    33    18    36    1
    34    19    20    1
    35    19    21   ar
    36    21    22   ar
    37    21    37    1
    38    22    38    1
    39    23    24   ar
    40    23    39    1
    41    24    25   ar
    42    24    40    1
@<TRIPOS>SUBSTRUCTURE
     1 ZINC000816269301        1 TEMP              0 ****  ****    0 ROOT


##########                                Name:    ZINC000821442454
##########                DOCK_Rotatable_Bonds:                   6
##########                         Heavy_Atoms:                  26
##########                    Molecular_Weight:             398.873
##########                DOCK_Rotatable_Bonds:                   6
##########                       Formal_Charge:          -0.0399996
##########                     HBond_Acceptors:                  11
##########                        HBond_Donors:                   2
##########                         Heavy_Atoms:                  26
##########                          Grid_Score:          -30.109047
##########                     Grid_vdw_energy:          -28.140993
##########                      Grid_es_energy:           -1.968054
##########           Internal_energy_repulsive:           12.125181

@<TRIPOS>MOLECULE
ZINC000821442454
 45 47 1 0 0
SMALL
USER_CHARGES


@<TRIPOS>ATOM
      1 C1        -16.9471   -2.6494   55.7195 C.3     1  ZINC000821442454   -0.1500
      2 C2        -15.6030   -2.1030   56.2049 C.3     1  ZINC000821442454   -0.6300
      3 S3        -15.5854   -2.0642   58.0184 S.o2    1  ZINC000821442454    2.6000
      4 O4        -16.5042   -1.0958   58.5053 O.2     1  ZINC000821442454   -0.9500
      5 O5        -15.5639   -3.3838   58.5452 O.2     1  ZINC000821442454   -0.9500
      6 N6        -14.0982   -1.4463   58.4041 N.am    1  ZINC000821442454   -1.0000
      7 C7        -13.7059   -1.2605   59.8078 C.3     1  ZINC000821442454    0.1100
      8 C8        -13.2553    0.1902   60.0060 C.3     1  ZINC000821442454   -0.1300
      9 C9        -12.1536    0.5204   58.9965 C.3     1  ZINC000821442454   -0.1100
     10 C10       -12.7015    0.3747   57.5750 C.3     1  ZINC000821442454   -0.1200
     11 H11       -13.5539    1.0413   57.4435 H       1  ZINC000821442454    0.1100
     12 C12       -11.6256    0.7321   56.5821 C.2     1  ZINC000821442454    0.5300
     13 O13       -11.7675    1.6908   55.8529 O.2     1  ZINC000821442454   -0.5100
     14 N14       -10.5057   -0.0137   56.5044 N.am    1  ZINC000821442454   -0.6700
     15 C15        -9.5071    0.3179   55.5828 C.ar    1  ZINC000821442454    0.1800
     16 C16        -8.5866    1.3132   55.8856 C.ar    1  ZINC000821442454   -0.1200
     17 C17        -7.6007    1.6415   54.9788 C.ar    1  ZINC000821442454   -0.0500
     18 C18        -7.5279    0.9744   53.7577 C.ar    1  ZINC000821442454   -0.0300
     19 C19        -6.4673    1.3262   52.7808 C.2     1  ZINC000821442454    0.2200
     20 N20        -6.1677    0.6743   51.6749 N.2     1  ZINC000821442454   -0.2900
     21 N21        -5.1929    1.2940   51.1036 N.pl3   1  ZINC000821442454   -0.2200
     22 N22        -4.8655    2.3177   51.8121 N.2     1  ZINC000821442454   -0.0400
     23 N23        -5.6314    2.3722   52.8484 N.2     1  ZINC000821442454   -0.2700
     24 C24        -8.4520   -0.0241   53.4549 C.ar    1  ZINC000821442454   -0.0500
     25 C25        -9.4335   -0.3533   54.3668 C.ar    1  ZINC000821442454   -0.0800
     26 Cl26      -10.5851   -1.5967   53.9909 Cl      1  ZINC000821442454   -0.0500
     27 C27       -13.1436   -1.0791   57.3493 C.3     1  ZINC000821442454    0.1400
     28 H28       -17.0901   -3.6585   56.1059 H       1  ZINC000821442454    0.0700
     29 H29       -17.7512   -2.0062   56.0770 H       1  ZINC000821442454    0.0700
     30 H30       -16.9577   -2.6727   54.6298 H       1  ZINC000821442454    0.0800
     31 H31       -14.7989   -2.7463   55.8474 H       1  ZINC000821442454    0.1300
     32 H32       -15.4601   -1.0938   55.8185 H       1  ZINC000821442454    0.1300
     33 H33       -14.5567   -1.4707   60.4559 H       1  ZINC000821442454    0.1000
     34 H34       -12.8843   -1.9346   60.0499 H       1  ZINC000821442454    0.0700
     35 H35       -14.1024    0.8585   59.8516 H       1  ZINC000821442454    0.0700
     36 H36       -12.8711    0.3167   61.0182 H       1  ZINC000821442454    0.0800
     37 H37       -11.8139    1.5445   59.1516 H       1  ZINC000821442454    0.0700
     38 H38       -11.3169   -0.1643   59.1351 H       1  ZINC000821442454    0.0800
     39 H39       -10.3922   -0.7805   57.0875 H       1  ZINC000821442454    0.4200
     40 H40        -8.6432    1.8306   56.8320 H       1  ZINC000821442454    0.1600
     41 H41        -6.8856    2.4157   55.2148 H       1  ZINC000821442454    0.1500
     42 H42        -4.7717    1.0304   50.2705 H       1  ZINC000821442454    0.4800
     43 H43        -8.3974   -0.5423   52.5090 H       1  ZINC000821442454    0.1500
     44 H44       -12.2747   -1.7359   57.3906 H       1  ZINC000821442454    0.0800
     45 H45       -13.6251   -1.1676   56.3755 H       1  ZINC000821442454    0.1000
@<TRIPOS>BOND
     1     1     2    1
     2     1    28    1
     3     1    29    1
     4     1    30    1
     5     2     3    1
     6     2    31    1
     7     2    32    1
     8     3     4    2
     9     3     5    2
    10     3     6   am
    11     6    27    1
    12     6     7    1
    13     7     8    1
    14     7    33    1
    15     7    34    1
    16     8     9    1
    17     8    35    1
    18     8    36    1
    19     9    10    1
    20     9    37    1
    21     9    38    1
    22    10    11    1
    23    10    12    1
    24    10    27    1
    25    12    13    2
    26    12    14   am
    27    14    15    1
    28    14    39    1
    29    15    25   ar
    30    15    16   ar
    31    16    17   ar
    32    16    40    1
    33    17    18   ar
    34    17    41    1
    35    18    19    1
    36    18    24   ar
    37    19    23    1
    38    19    20    2
    39    20    21    1
    40    21    22    1
    41    21    42    1
    42    22    23    2
    43    24    25   ar
    44    24    43    1
    45    25    26    1
    46    27    44    1
    47    27    45    1
@<TRIPOS>SUBSTRUCTURE
     1 ZINC000821442454        1 TEMP              0 ****  ****    0 ROOT


##########                                Name:     oleObject42.pdb
##########                DOCK_Rotatable_Bonds:                   9
##########                         Heavy_Atoms:                  36
##########                    Molecular_Weight:             527.493
##########                DOCK_Rotatable_Bonds:                   9
##########                       Formal_Charge:         9.99384e-05
##########                     HBond_Acceptors:                   8
##########                        HBond_Donors:                   0
##########                         Heavy_Atoms:                  36
##########                          Grid_Score:          -30.080616
##########                     Grid_vdw_energy:          -29.291405
##########                      Grid_es_energy:           -0.789211
##########           Internal_energy_repulsive:           26.229755

@<TRIPOS>MOLECULE
oleObject42.pdb
 68 71 1 0 0
SMALL
NO_CHARGES


@<TRIPOS>ATOM
      1 C           4.7508   -1.0936   62.6736 C.ar    1  UNL        -0.0435
      2 C           3.4270   -1.1274   62.2121 C.ar    1  UNL        -0.0559
      3 C           2.9705   -0.1040   61.3603 C.ar    1  UNL        -0.0272
      4 C           3.8744    0.9276   61.0012 C.ar    1  UNL         0.0699
      5 N           5.1498    0.9481   61.4541 N.ar    1  UNL        -0.2586
      6 C           5.5771   -0.0354   62.2678 C.ar    1  UNL         0.0272
      7 C           3.4562    2.0815   60.0738 C.3     1  UNL         0.1101
      8 C           3.9841    3.4542   60.5341 C.ar    1  UNL         0.0699
      9 C           3.3456    4.1801   61.5712 C.ar    1  UNL        -0.0272
     10 C           3.8732    5.4333   61.9355 C.ar    1  UNL        -0.0559
     11 C           5.0043    5.9201   61.2647 C.ar    1  UNL        -0.0435
     12 C           5.5710    5.1376   60.2481 C.ar    1  UNL         0.0272
     13 N           5.0730    3.9390   59.8918 N.ar    1  UNL        -0.2586
     14 C           2.1152    3.6479   62.2978 C.3     1  UNL        -0.0379
     15 N           3.6986    1.7815   58.6353 N.am    1  UNL        -0.2902
     16 C           2.9166    2.3103   57.6075 C.2     1  UNL         0.2180
     17 O           3.3011    2.2542   56.4510 O.2     1  UNL        -0.2772
     18 C           1.7534    3.2470   58.0162 C.3     1  UNL         0.0385
     19 C           0.4293    2.4625   58.1798 C.3     1  UNL        -0.0289
     20 C          -0.1851    2.0626   56.8212 C.3     1  UNL        -0.0010
     21 N          -0.3774    3.2397   55.9468 N.4     1  UNL        -0.3010
     22 C           0.8574    4.0199   55.7100 C.3     1  UNL        -0.0010
     23 C           1.5544    4.4280   57.0302 C.3     1  UNL        -0.0289
     24 C          -1.1559    2.9575   54.7204 C.3     1  UNL         0.0222
     25 C          -1.3277    4.1788   53.7895 C.3     1  UNL         0.0661
     26 O          -2.0433    3.7453   52.6222 O.3     1  UNL        -0.3432
     27 C          -3.2921    3.1948   52.7740 C.ar    1  UNL         0.0937
     28 C          -4.1427    3.6971   53.7733 C.ar    1  UNL        -0.0288
     29 C          -5.4235    3.1476   53.9483 C.ar    1  UNL        -0.0408
     30 C          -5.8515    2.0929   53.1247 C.ar    1  UNL         0.0422
     31 C          -5.0014    1.5849   52.1282 C.ar    1  UNL        -0.0221
     32 C          -3.7199    2.1334   51.9513 C.ar    1  UNL         0.0723
     33 CL         -2.6761    1.4780   50.7036 Cl      1  UNL        -0.0814
     34 CL         -7.4477    1.4076   53.3429 Cl      1  UNL        -0.0843
     35 C           4.7175    0.7542   58.3400 C.3     1  UNL         0.0038
     36 C           1.5326   -0.1401   60.8540 C.3     1  UNL        -0.0379
     37 H           5.1294   -1.8710   63.3306 H       1  UNL         0.0639
     38 H           2.7678   -1.9376   62.5112 H       1  UNL         0.0627
     39 H           6.6118    0.0277   62.6024 H       1  UNL         0.0840
     40 H           2.3700    2.1480   60.1765 H       1  UNL         0.0643
     41 H           3.4157    6.0210   62.7263 H       1  UNL         0.0627
     42 H           5.4331    6.8830   61.5262 H       1  UNL         0.0639
     43 H           6.4497    5.4789   59.7022 H       1  UNL         0.0840
     44 H           1.2662    3.5409   61.6114 H       1  UNL         0.0280
     45 H           1.8003    4.3215   63.1046 H       1  UNL         0.0280
     46 H           2.3137    2.6691   62.7515 H       1  UNL         0.0280
     47 H           1.9962    3.6995   58.9830 H       1  UNL         0.0402
     48 H          -0.2921    3.0888   58.7205 H       1  UNL         0.0288
     49 H           0.5880    1.5664   58.7914 H       1  UNL         0.0288
     50 H          -1.1498    1.5713   57.0022 H       1  UNL         0.0431
     51 H           0.4747    1.3337   56.3334 H       1  UNL         0.0431
     52 H           0.6184    4.9299   55.1449 H       1  UNL         0.0431
     53 H           1.5581    3.4349   55.1026 H       1  UNL         0.0431
     54 H           0.9364    5.1910   57.5212 H       1  UNL         0.0288
     55 H           2.5199    4.9023   56.8122 H       1  UNL         0.0288
     56 H          -2.1511    2.5886   54.9995 H       1  UNL         0.0455
     57 H          -0.6619    2.1564   54.1556 H       1  UNL         0.0455
     58 H          -0.3459    4.5741   53.5015 H       1  UNL         0.0586
     59 H          -1.8887    4.9705   54.3011 H       1  UNL         0.0586
     60 H          -3.8085    4.5114   54.4097 H       1  UNL         0.0652
     61 H          -6.0808    3.5379   54.7202 H       1  UNL         0.0639
     62 H          -5.3345    0.7674   51.4951 H       1  UNL         0.0655
     63 H           5.5084    0.7652   59.1004 H       1  UNL         0.0433
     64 H           5.1760    0.9509   57.3627 H       1  UNL         0.0433
     65 H           4.2477   -0.2372   58.3223 H       1  UNL         0.0433
     66 H           1.0029   -1.0337   61.2071 H       1  UNL         0.0280
     67 H           1.4970   -0.1546   59.7580 H       1  UNL         0.0280
     68 H           0.9682    0.7327   61.2039 H       1  UNL         0.0280
@<TRIPOS>BOND
     1     1     2   ar
     2     1     6   ar
     3     1    37    1
     4     2     3   ar
     5     2    38    1
     6     3     4   ar
     7     3    36    1
     8     4     5   ar
     9     4     7    1
    10     5     6   ar
    11     6    39    1
    12     7     8    1
    13     7    15    1
    14     7    40    1
    15     8     9   ar
    16     8    13   ar
    17     9    10   ar
    18     9    14    1
    19    10    11   ar
    20    10    41    1
    21    11    12   ar
    22    11    42    1
    23    12    13   ar
    24    12    43    1
    25    14    44    1
    26    14    45    1
    27    14    46    1
    28    15    16   am
    29    15    35    1
    30    16    17    2
    31    16    18    1
    32    18    19    1
    33    18    23    1
    34    18    47    1
    35    19    20    1
    36    19    48    1
    37    19    49    1
    38    20    21    1
    39    20    50    1
    40    20    51    1
    41    21    22    1
    42    21    24    1
    43    22    23    1
    44    22    52    1
    45    22    53    1
    46    23    54    1
    47    23    55    1
    48    24    25    1
    49    24    56    1
    50    24    57    1
    51    25    26    1
    52    25    58    1
    53    25    59    1
    54    26    27    1
    55    27    28   ar
    56    27    32   ar
    57    28    29   ar
    58    28    60    1
    59    29    30   ar
    60    29    61    1
    61    30    31   ar
    62    30    34    1
    63    31    32   ar
    64    31    62    1
    65    32    33    1
    66    35    63    1
    67    35    64    1
    68    35    65    1
    69    36    66    1
    70    36    67    1
    71    36    68    1
@<TRIPOS>SUBSTRUCTURE
     1 UNL         1 TEMP              0 ****  ****    0 ROOT


##########                                Name:    ZINC001078110631
##########                DOCK_Rotatable_Bonds:                   7
##########                         Heavy_Atoms:                  25
##########                    Molecular_Weight:             353.369
##########                DOCK_Rotatable_Bonds:                   7
##########                       Formal_Charge:           0.0100006
##########                     HBond_Acceptors:                   8
##########                        HBond_Donors:                   2
##########                         Heavy_Atoms:                  25
##########                          Grid_Score:          -30.079504
##########                     Grid_vdw_energy:          -28.831158
##########                      Grid_es_energy:           -1.248347
##########           Internal_energy_repulsive:            7.420939

@<TRIPOS>MOLECULE
ZINC001078110631
 46 48 1 0 0
SMALL
USER_CHARGES


@<TRIPOS>ATOM
      1 O1         -9.7859   -1.4733   53.3595 O.2     1  ZINC001078110631   -0.5100
      2 C2         -9.2358   -0.6695   54.0875 C.2     1  ZINC001078110631    0.5600
      3 N3         -9.5443   -0.6266   55.3987 N.am    1  ZINC001078110631   -0.7200
      4 C4        -10.5468   -1.5443   55.9458 C.3     1  ZINC001078110631    0.1500
      5 H5        -10.9633   -2.1654   55.1529 H       1  ZINC001078110631    0.1200
      6 C6        -11.6686   -0.7534   56.6525 C.3     1  ZINC001078110631    0.0300
      7 N7        -12.0241   -1.5821   57.8332 N.3     1  ZINC001078110631   -0.5000
      8 C8        -12.6960   -0.7745   58.8600 C.3     1  ZINC001078110631    0.0300
      9 C9        -13.8104   -1.5984   59.5084 C.3     1  ZINC001078110631    0.1300
     10 N10       -14.8988   -1.7899   58.5466 N.am    1  ZINC001078110631   -0.6200
     11 C11       -15.2588   -3.0817   57.9501 C.3     1  ZINC001078110631    0.1000
     12 C12       -16.6791   -2.8879   57.3741 C.3     1  ZINC001078110631   -0.1300
     13 C13       -16.7133   -1.3621   57.1259 C.3     1  ZINC001078110631   -0.1600
     14 C14       -15.6995   -0.8063   58.1015 C.2     1  ZINC001078110631    0.5200
     15 O15       -15.6166    0.3586   58.4290 O.2     1  ZINC001078110631   -0.5200
     16 C16       -10.7192   -2.0925   58.3270 C.3     1  ZINC001078110631    0.0000
     17 C17        -9.9215   -2.4270   57.0455 C.3     1  ZINC001078110631    0.1000
     18 H18        -8.8690   -2.1769   57.1786 H       1  ZINC001078110631    0.0700
     19 O19       -10.0646   -3.8109   56.7189 O.3     1  ZINC001078110631   -0.5500
     20 C20        -8.2261    0.2548   53.5364 C.ar    1  ZINC001078110631   -0.1900
     21 C21        -8.2539    1.6089   53.8784 C.ar    1  ZINC001078110631   -0.0300
     22 C22        -7.3088    2.4677   53.3610 C.ar    1  ZINC001078110631   -0.1700
     23 C23        -6.3297    1.9914   52.5014 C.ar    1  ZINC001078110631    0.1600
     24 F24        -5.4064    2.8394   51.9979 F       1  ZINC001078110631   -0.1200
     25 C25        -6.2945    0.6500   52.1572 C.ar    1  ZINC001078110631   -0.2000
     26 C26        -7.2333   -0.2225   52.6734 C.ar    1  ZINC001078110631    0.2000
     27 F27        -7.1989   -1.5307   52.3378 F       1  ZINC001078110631   -0.1000
     28 H28        -9.1026    0.0119   55.9802 H       1  ZINC001078110631    0.4000
     29 H29       -11.3033    0.2233   56.9697 H       1  ZINC001078110631    0.0500
     30 H30       -12.5292   -0.6427   55.9928 H       1  ZINC001078110631    0.1000
     31 H31       -11.9732   -0.4789   59.6205 H       1  ZINC001078110631    0.0400
     32 H32       -13.1236    0.1161   58.3996 H       1  ZINC001078110631    0.0800
     33 H33       -13.4165   -2.5691   59.8094 H       1  ZINC001078110631    0.0900
     34 H34       -14.1884   -1.0721   60.3848 H       1  ZINC001078110631    0.0800
     35 H35       -14.5603   -3.3369   57.1533 H       1  ZINC001078110631    0.0700
     36 H36       -15.2639   -3.8608   58.7123 H       1  ZINC001078110631    0.0800
     37 H37       -16.7998   -3.4378   56.4407 H       1  ZINC001078110631    0.0900
     38 H38       -17.4376   -3.1822   58.0995 H       1  ZINC001078110631    0.0800
     39 H39       -16.4244   -1.1360   56.0994 H       1  ZINC001078110631    0.1100
     40 H40       -17.7044   -0.9627   57.3411 H       1  ZINC001078110631    0.1000
     41 H41       -10.2054   -1.3253   58.9062 H       1  ZINC001078110631    0.0600
     42 H42       -10.8649   -2.9900   58.9282 H       1  ZINC001078110631    0.0900
     43 H43        -9.5686   -4.0832   55.9348 H       1  ZINC001078110631    0.3800
     44 H44        -9.0152    1.9822   54.5472 H       1  ZINC001078110631    0.1500
     45 H45        -7.3305    3.5146   53.6252 H       1  ZINC001078110631    0.1500
     46 H46        -5.5299    0.2849   51.4874 H       1  ZINC001078110631    0.1600
@<TRIPOS>BOND
     1     1     2    2
     2     2     3   am
     3     2    20    1
     4     3     4    1
     5     3    28    1
     6     4     5    1
     7     4    17    1
     8     4     6    1
     9     6     7    1
    10     6    29    1
    11     6    30    1
    12     7     8    1
    13     7    16    1
    14     8     9    1
    15     8    31    1
    16     8    32    1
    17     9    10    1
    18     9    33    1
    19     9    34    1
    20    10    14   am
    21    10    11    1
    22    11    12    1
    23    11    35    1
    24    11    36    1
    25    12    13    1
    26    12    37    1
    27    12    38    1
    28    13    14    1
    29    13    39    1
    30    13    40    1
    31    14    15    2
    32    16    17    1
    33    16    41    1
    34    16    42    1
    35    17    18    1
    36    17    19    1
    37    19    43    1
    38    20    26   ar
    39    20    21   ar
    40    21    22   ar
    41    21    44    1
    42    22    23   ar
    43    22    45    1
    44    23    24    1
    45    23    25   ar
    46    25    26   ar
    47    25    46    1
    48    26    27    1
@<TRIPOS>SUBSTRUCTURE
     1 ZINC001078110631        1 TEMP              0 ****  ****    0 ROOT


##########                                Name:    ZINC000980108339
##########                DOCK_Rotatable_Bonds:                   9
##########                         Heavy_Atoms:                  25
##########                    Molecular_Weight:             348.445
##########                DOCK_Rotatable_Bonds:                   9
##########                       Formal_Charge:          -0.0100001
##########                     HBond_Acceptors:                   7
##########                        HBond_Donors:                   3
##########                         Heavy_Atoms:                  25
##########                          Grid_Score:          -30.068407
##########                     Grid_vdw_energy:          -28.909346
##########                      Grid_es_energy:           -1.159061
##########           Internal_energy_repulsive:           34.859127

@<TRIPOS>MOLECULE
ZINC000980108339
 53 56 1 0 0
SMALL
USER_CHARGES


@<TRIPOS>ATOM
      1 C1         -5.0986    2.1448   51.1793 C.3     1  ZINC000980108339    0.1200
      2 N2         -4.0848    2.7776   52.0267 N.am    1  ZINC000980108339   -0.6400
      3 C3         -4.3586    3.7045   53.1351 C.3     1  ZINC000980108339    0.1100
      4 C4         -2.9591    4.0598   53.6734 C.3     1  ZINC000980108339    0.1000
      5 H5         -2.7718    5.1292   53.5763 H       1  ZINC000980108339    0.1200
      6 C6         -2.8201    3.6284   55.1107 C.2     1  ZINC000980108339    0.5000
      7 O7         -3.7840    3.6511   55.8465 O.2     1  ZINC000980108339   -0.5200
      8 N8         -1.6249    3.2173   55.5784 N.am    1  ZINC000980108339   -0.7200
      9 C9         -1.4894    2.7996   56.9759 C.3     1  ZINC000980108339    0.1300
     10 C10        -0.0182    2.5118   57.2820 C.3     1  ZINC000980108339   -0.1200
     11 H11         0.3089    1.5401   56.9119 H       1  ZINC000980108339    0.1000
     12 C12         0.9266    3.6647   56.9042 C.3     1  ZINC000980108339   -0.1400
     13 C13         1.6851    3.3660   58.2082 C.3     1  ZINC000980108339    0.1200
     14 H14         2.0120    4.2608   58.7379 H       1  ZINC000980108339    0.1100
     15 N15         2.7528    2.3752   58.0522 N.am    1  ZINC000980108339   -0.7200
     16 C16         3.9191    2.7265   57.4753 C.2     1  ZINC000980108339    0.5200
     17 O17         4.0851    3.8633   57.0865 O.2     1  ZINC000980108339   -0.5300
     18 C18         5.0169    1.7068   57.3131 C.3     1  ZINC000980108339   -0.1100
     19 C19         4.9713    0.7184   58.4800 C.3     1  ZINC000980108339   -0.1300
     20 H20         4.2901   -0.1236   58.3567 H       1  ZINC000980108339    0.1200
     21 C21         5.1488    1.2826   59.8911 C.3     1  ZINC000980108339   -0.1700
     22 C22         6.2725    0.4682   59.2451 C.3     1  ZINC000980108339   -0.1200
     23 H23         7.1609    1.0079   58.9173 H       1  ZINC000980108339    0.1000
     24 C24         6.5181   -0.9443   59.7793 C.3     1  ZINC000980108339   -0.1300
     25 C25         5.7651   -1.3621   61.0441 C.3     1  ZINC000980108339   -0.1800
     26 C26         5.3643   -1.9449   59.6874 C.3     1  ZINC000980108339   -0.1800
     27 C27         0.3694    2.7752   58.7467 C.3     1  ZINC000980108339   -0.1400
     28 N28        -2.0454    3.2954   52.8114 N.am    1  ZINC000980108339   -0.7200
     29 C29        -2.7617    2.5993   51.9187 C.2     1  ZINC000980108339    0.7000
     30 O30        -2.2561    1.8781   51.0805 O.2     1  ZINC000980108339   -0.5800
     31 H31        -4.6100    1.5047   50.4446 H       1  ZINC000980108339    0.0900
     32 H32        -5.7658    1.5443   51.7977 H       1  ZINC000980108339    0.0600
     33 H33        -5.6743    2.9144   50.6651 H       1  ZINC000980108339    0.0600
     34 H34        -4.8663    4.5975   52.7704 H       1  ZINC000980108339    0.1000
     35 H35        -4.9521    3.2138   53.9064 H       1  ZINC000980108339    0.0900
     36 H36        -0.8542    3.1979   54.9895 H       1  ZINC000980108339    0.4000
     37 H37        -1.8475    3.5951   57.6293 H       1  ZINC000980108339    0.0700
     38 H38        -2.0786    1.8982   57.1445 H       1  ZINC000980108339    0.0700
     39 H39         1.5119    3.4729   56.0049 H       1  ZINC000980108339    0.0800
     40 H40         0.4420    4.6411   56.8948 H       1  ZINC000980108339    0.1000
     41 H41         2.6205    1.4663   58.3642 H       1  ZINC000980108339    0.4000
     42 H42         4.8773    1.1688   56.3755 H       1  ZINC000980108339    0.1000
     43 H43         5.9829    2.2116   57.3020 H       1  ZINC000980108339    0.1000
     44 H44         5.2981    2.3580   59.9880 H       1  ZINC000980108339    0.0900
     45 H45         4.5847    0.8117   60.6961 H       1  ZINC000980108339    0.1000
     46 H46         7.5294   -1.3284   59.6453 H       1  ZINC000980108339    0.1000
     47 H47         6.2810   -2.0211   61.7424 H       1  ZINC000980108339    0.0900
     48 H48         5.0948   -0.6306   61.4954 H       1  ZINC000980108339    0.0900
     49 H49         4.4303   -1.5970   59.2462 H       1  ZINC000980108339    0.0900
     50 H50         5.6166   -2.9874   59.4932 H       1  ZINC000980108339    0.0900
     51 H51        -0.2682    3.5080   59.2412 H       1  ZINC000980108339    0.1000
     52 H52         0.5065    1.8672   59.3338 H       1  ZINC000980108339    0.0800
     53 H53        -1.0779    3.2924   52.8807 H       1  ZINC000980108339    0.4400
@<TRIPOS>BOND
     1     1     2    1
     2     1    31    1
     3     1    32    1
     4     1    33    1
     5     2    29   am
     6     2     3    1
     7     3     4    1
     8     3    34    1
     9     3    35    1
    10     4     5    1
    11     4     6    1
    12     4    28    1
    13     6     7    2
    14     6     8   am
    15     8     9    1
    16     8    36    1
    17     9    10    1
    18     9    37    1
    19     9    38    1
    20    10    11    1
    21    10    27    1
    22    10    12    1
    23    12    13    1
    24    12    39    1
    25    12    40    1
    26    13    14    1
    27    13    15    1
    28    13    27    1
    29    15    16   am
    30    15    41    1
    31    16    17    2
    32    16    18    1
    33    18    19    1
    34    18    42    1
    35    18    43    1
    36    19    20    1
    37    19    22    1
    38    19    21    1
    39    21    22    1
    40    21    44    1
    41    21    45    1
    42    22    23    1
    43    22    24    1
    44    24    26    1
    45    24    25    1
    46    24    46    1
    47    25    26    1
    48    25    47    1
    49    25    48    1
    50    26    49    1
    51    26    50    1
    52    27    51    1
    53    27    52    1
    54    28    29   am
    55    28    53    1
    56    29    30    2
@<TRIPOS>SUBSTRUCTURE
     1 ZINC000980108339        1 TEMP              0 ****  ****    0 ROOT


##########                                Name:    ZINC000573150059
##########                DOCK_Rotatable_Bonds:                   7
##########                         Heavy_Atoms:                  23
##########                    Molecular_Weight:             378.269
##########                DOCK_Rotatable_Bonds:                   7
##########                       Formal_Charge:        -2.98023e-07
##########                     HBond_Acceptors:                   5
##########                        HBond_Donors:                   2
##########                         Heavy_Atoms:                  23
##########                          Grid_Score:          -30.062012
##########                     Grid_vdw_energy:          -29.020594
##########                      Grid_es_energy:           -1.041417
##########           Internal_energy_repulsive:            9.748639

@<TRIPOS>MOLECULE
ZINC000573150059
 43 44 1 0 0
SMALL
USER_CHARGES


@<TRIPOS>ATOM
      1 C1         -6.3142    0.7177   63.0702 C.3     1  ZINC000573150059    0.0300
      2 O2         -7.0492    0.5418   61.8575 O.3     1  ZINC000573150059   -0.3600
      3 C3         -8.1631    1.4262   61.7195 C.3     1  ZINC000573150059    0.0700
      4 H4         -8.6913    1.4963   62.6703 H       1  ZINC000573150059    0.0900
      5 C5         -7.6652    2.8134   61.3091 C.3     1  ZINC000573150059   -0.1700
      6 C6         -9.0981    0.8954   60.6635 C.2     1  ZINC000573150059    0.5100
      7 O7        -10.2747    1.1884   60.6925 O.2     1  ZINC000573150059   -0.4900
      8 N8         -8.6269    0.0950   59.6869 N.am    1  ZINC000573150059   -0.6700
      9 C9         -9.4951   -0.3978   58.7065 C.ar    1  ZINC000573150059    0.1900
     10 C10       -10.5126   -1.2762   59.0568 C.ar    1  ZINC000573150059   -0.2000
     11 C11       -11.3705   -1.7635   58.0894 C.ar    1  ZINC000573150059   -0.0500
     12 C12       -11.2200   -1.3788   56.7713 C.ar    1  ZINC000573150059   -0.2200
     13 C13       -10.2043   -0.4998   56.4142 C.ar    1  ZINC000573150059    0.2400
     14 N14       -10.0529   -0.1109   55.0813 N.pl3   1  ZINC000573150059   -0.7300
     15 C15        -9.3652   -0.9923   54.1346 C.3     1  ZINC000573150059    0.2000
     16 H16        -8.9512   -1.8473   54.6692 H       1  ZINC000573150059    0.1000
     17 C17       -10.3593   -1.4828   53.0800 C.3     1  ZINC000573150059   -0.1700
     18 C18        -8.2511   -0.2339   53.4604 C.ar    1  ZINC000573150059    0.1400
     19 C19        -7.9816    1.0665   53.8427 C.ar    1  ZINC000573150059   -0.1600
     20 C20        -6.9542    1.7558   53.2167 C.ar    1  ZINC000573150059   -0.0400
     21 C21        -6.2331    1.1078   52.2246 C.ar    1  ZINC000573150059   -0.1500
     22 Br22       -4.8198    1.9940   51.3340 Br      1  ZINC000573150059   -0.0300
     23 C23        -6.5609   -0.1950   51.8955 C.ar    1  ZINC000573150059    0.1400
     24 N24        -7.5416   -0.8207   52.5162 N.ar    1  ZINC000573150059   -0.4700
     25 C25        -9.3441   -0.0051   57.3842 C.ar    1  ZINC000573150059   -0.1900
     26 H26        -5.9249    1.7348   63.1149 H       1  ZINC000573150059    0.0500
     27 H27        -6.9714    0.5426   63.9220 H       1  ZINC000573150059    0.0400
     28 H28        -5.4857    0.0099   63.0990 H       1  ZINC000573150059    0.0900
     29 H29        -7.1369    2.7432   60.3582 H       1  ZINC000573150059    0.0700
     30 H30        -8.5148    3.4880   61.2038 H       1  ZINC000573150059    0.0700
     31 H31        -6.9890    3.1974   62.0728 H       1  ZINC000573150059    0.0700
     32 H32        -7.6859   -0.1393   59.6636 H       1  ZINC000573150059    0.4100
     33 H33       -10.6330   -1.5790   60.0866 H       1  ZINC000573150059    0.1200
     34 H34       -12.1604   -2.4468   58.3644 H       1  ZINC000573150059    0.1300
     35 H35       -11.8920   -1.7616   56.0175 H       1  ZINC000573150059    0.1200
     36 H36       -10.4030    0.7430   54.7825 H       1  ZINC000573150059    0.4100
     37 H37       -10.7732   -0.6279   52.5454 H       1  ZINC000573150059    0.0600
     38 H38        -9.8476   -2.1387   52.3757 H       1  ZINC000573150059    0.0700
     39 H39       -11.1651   -2.0314   53.5677 H       1  ZINC000573150059    0.0700
     40 H40        -8.5640    1.5399   54.6192 H       1  ZINC000573150059    0.1500
     41 H41        -6.7213    2.7731   53.4947 H       1  ZINC000573150059    0.1500
     42 H42        -6.0048   -0.7069   51.1241 H       1  ZINC000573150059    0.1700
     43 H43        -8.5543    0.6783   57.1095 H       1  ZINC000573150059    0.1400
@<TRIPOS>BOND
     1     1     2    1
     2     1    26    1
     3     1    27    1
     4     1    28    1
     5     2     3    1
     6     3     4    1
     7     3     5    1
     8     3     6    1
     9     5    29    1
    10     5    30    1
    11     5    31    1
    12     6     7    2
    13     6     8   am
    14     8     9    1
    15     8    32    1
    16     9    25   ar
    17     9    10   ar
    18    10    11   ar
    19    10    33    1
    20    11    12   ar
    21    11    34    1
    22    12    13   ar
    23    12    35    1
    24    13    14    1
    25    13    25   ar
    26    14    15    1
    27    14    36    1
    28    15    16    1
    29    15    17    1
    30    15    18    1
    31    17    37    1
    32    17    38    1
    33    17    39    1
    34    18    24   ar
    35    18    19   ar
    36    19    20   ar
    37    19    40    1
    38    20    21   ar
    39    20    41    1
    40    21    22    1
    41    21    23   ar
    42    23    24   ar
    43    23    42    1
    44    25    43    1
@<TRIPOS>SUBSTRUCTURE
     1 ZINC000573150059        1 TEMP              0 ****  ****    0 ROOT


##########                                Name:    ZINC000505965769
##########                DOCK_Rotatable_Bonds:                   9
##########                         Heavy_Atoms:                  29
##########                    Molecular_Weight:              419.88
##########                DOCK_Rotatable_Bonds:                   9
##########                       Formal_Charge:               -0.02
##########                     HBond_Acceptors:                   7
##########                        HBond_Donors:                   1
##########                         Heavy_Atoms:                  29
##########                          Grid_Score:          -30.042051
##########                     Grid_vdw_energy:          -29.957966
##########                      Grid_es_energy:           -0.084085
##########           Internal_energy_repulsive:           14.760836

@<TRIPOS>MOLECULE
ZINC000505965769
 52 54 1 0 0
SMALL
USER_CHARGES


@<TRIPOS>ATOM
      1 C1        -11.7228   -0.7703   52.6657 C.3     1  ZINC000505965769    0.0200
      2 O2        -10.3589   -0.8705   53.0803 O.3     1  ZINC000505965769   -0.3100
      3 C3        -10.1005   -0.6825   54.3987 C.ar    1  ZINC000505965769    0.1800
      4 C4         -9.7214    0.5744   54.8581 C.ar    1  ZINC000505965769   -0.2200
      5 C5         -9.4597    0.7731   56.1837 C.ar    1  ZINC000505965769   -0.0200
      6 C6         -9.5724   -0.2908   57.0873 C.ar    1  ZINC000505965769   -0.2100
      7 C7         -9.2922   -0.0797   58.5124 C.2     1  ZINC000505965769    0.3900
      8 O8        -10.0288    0.6169   59.1786 O.2     1  ZINC000505965769   -0.4400
      9 C9         -8.0897   -0.7284   59.1481 C.3     1  ZINC000505965769   -0.1500
     10 C10        -6.9368    0.2760   59.2012 C.3     1  ZINC000505965769   -0.1300
     11 C11        -7.1511    1.2266   60.3508 C.2     1  ZINC000505965769    0.5200
     12 O12        -7.1411    2.4238   60.1576 O.2     1  ZINC000505965769   -0.5300
     13 N13        -7.3542    0.7461   61.5936 N.am    1  ZINC000505965769   -0.7200
     14 C14        -7.5608    1.6702   62.7113 C.3     1  ZINC000505965769    0.1900
     15 H15        -7.0992    2.6300   62.4795 H       1  ZINC000505965769    0.1100
     16 C16        -9.0383    1.8645   62.9359 C.ar    1  ZINC000505965769   -0.1000
     17 C17        -9.9062    0.7994   62.7823 C.ar    1  ZINC000505965769   -0.0900
     18 C18       -11.2612    0.9765   62.9879 C.ar    1  ZINC000505965769   -0.1500
     19 C19       -11.7495    2.2210   63.3483 C.ar    1  ZINC000505965769    0.1000
     20 F20       -13.0740    2.3951   63.5499 F       1  ZINC000505965769   -0.1400
     21 C21       -10.8792    3.2869   63.5022 C.ar    1  ZINC000505965769   -0.1500
     22 C22        -9.5240    3.1063   63.3008 C.ar    1  ZINC000505965769   -0.0600
     23 C23        -6.9247    1.0907   63.9764 C.3     1  ZINC000505965769    0.0800
     24 H24        -5.9341    0.6942   63.7536 H       1  ZINC000505965769    0.0700
     25 C25        -6.8340    2.1761   65.0785 C.3     1  ZINC000505965769   -0.1500
     26 C26        -6.8076    1.2959   66.3578 C.3     1  ZINC000505965769   -0.1600
     27 C27        -7.7174    0.1135   65.9607 C.3     1  ZINC000505965769    0.0500
     28 O28        -7.7610    0.0615   64.5286 O.3     1  ZINC000505965769   -0.3700
     29 C29        -9.9545   -1.5584   56.6254 C.ar    1  ZINC000505965769    0.0500
     30 Cl30      -10.0974   -2.8845   57.7365 Cl      1  ZINC000505965769   -0.0200
     31 C31       -10.2211   -1.7458   55.2864 C.ar    1  ZINC000505965769   -0.1600
     32 H32       -12.1014    0.2248   52.8993 H       1  ZINC000505965769    0.0600
     33 H33       -11.7895   -0.9414   51.5913 H       1  ZINC000505965769    0.1100
     34 H34       -12.3178   -1.5179   53.1903 H       1  ZINC000505965769    0.0600
     35 H35        -9.6333    1.3967   54.1635 H       1  ZINC000505965769    0.1400
     36 H36        -9.1653    1.7510   56.5352 H       1  ZINC000505965769    0.1500
     37 H37        -8.3409   -1.0468   60.1599 H       1  ZINC000505965769    0.1100
     38 H38        -7.7900   -1.5947   58.5584 H       1  ZINC000505965769    0.1100
     39 H39        -5.9964   -0.2572   59.3411 H       1  ZINC000505965769    0.1000
     40 H40        -6.9006    0.8374   58.2675 H       1  ZINC000505965769    0.1000
     41 H41        -7.3634   -0.2116   61.7477 H       1  ZINC000505965769    0.4000
     42 H42        -9.5252   -0.1712   62.5012 H       1  ZINC000505965769    0.1300
     43 H43       -11.9392    0.1445   62.8673 H       1  ZINC000505965769    0.1400
     44 H44       -11.2590    4.2582   63.7829 H       1  ZINC000505965769    0.1400
     45 H45        -8.8449    3.9375   63.4211 H       1  ZINC000505965769    0.1400
     46 H46        -5.9171    2.7576   64.9827 H       1  ZINC000505965769    0.0700
     47 H47        -7.7108    2.8236   65.0652 H       1  ZINC000505965769    0.1000
     48 H48        -5.7955    0.9520   66.5712 H       1  ZINC000505965769    0.0700
     49 H49        -7.2225    1.8359   67.2088 H       1  ZINC000505965769    0.0800
     50 H50        -7.3053   -0.8172   66.3507 H       1  ZINC000505965769    0.0700
     51 H51        -8.7207    0.2698   66.3568 H       1  ZINC000505965769    0.0700
     52 H52       -10.5161   -2.7200   54.9255 H       1  ZINC000505965769    0.1500
@<TRIPOS>BOND
     1     1     2    1
     2     1    32    1
     3     1    33    1
     4     1    34    1
     5     2     3    1
     6     3    31   ar
     7     3     4   ar
     8     4     5   ar
     9     4    35    1
    10     5     6   ar
    11     5    36    1
    12     6     7    1
    13     6    29   ar
    14     7     8    2
    15     7     9    1
    16     9    10    1
    17     9    37    1
    18     9    38    1
    19    10    11    1
    20    10    39    1
    21    10    40    1
    22    11    12    2
    23    11    13   am
    24    13    14    1
    25    13    41    1
    26    14    15    1
    27    14    16    1
    28    14    23    1
    29    16    22   ar
    30    16    17   ar
    31    17    18   ar
    32    17    42    1
    33    18    19   ar
    34    18    43    1
    35    19    20    1
    36    19    21   ar
    37    21    22   ar
    38    21    44    1
    39    22    45    1
    40    23    24    1
    41    23    28    1
    42    23    25    1
    43    25    26    1
    44    25    46    1
    45    25    47    1
    46    26    27    1
    47    26    48    1
    48    26    49    1
    49    27    28    1
    50    27    50    1
    51    27    51    1
    52    29    30    1
    53    29    31   ar
    54    31    52    1
@<TRIPOS>SUBSTRUCTURE
     1 ZINC000505965769        1 TEMP              0 ****  ****    0 ROOT


##########                                Name:    ZINC000929592477
##########                DOCK_Rotatable_Bonds:                   7
##########                         Heavy_Atoms:                  28
##########                    Molecular_Weight:             399.517
##########                DOCK_Rotatable_Bonds:                   7
##########                       Formal_Charge:         -8.9407e-08
##########                     HBond_Acceptors:                   8
##########                        HBond_Donors:                   3
##########                         Heavy_Atoms:                  28
##########                          Grid_Score:          -30.035662
##########                     Grid_vdw_energy:          -29.462442
##########                      Grid_es_energy:           -0.573220
##########           Internal_energy_repulsive:           13.927785

@<TRIPOS>MOLECULE
ZINC000929592477
 53 56 1 0 0
SMALL
USER_CHARGES


@<TRIPOS>ATOM
      1 O1         -9.3358    1.5957   58.3800 O.2     1  ZINC000929592477   -0.5700
      2 C2         -9.2313    0.4372   58.0253 C.2     1  ZINC000929592477    0.7100
      3 N3         -8.9957   -0.5277   58.9364 N.am    1  ZINC000929592477   -0.6800
      4 C4         -8.8654   -0.1951   60.2920 C.ar    1  ZINC000929592477    0.1600
      5 C5         -7.6071    0.0331   60.8328 C.ar    1  ZINC000929592477   -0.1300
      6 C6         -7.4782    0.3601   62.1679 C.ar    1  ZINC000929592477   -0.0800
      7 C7         -8.6080    0.4612   62.9703 C.ar    1  ZINC000929592477   -0.1000
      8 S8         -8.4443    0.8793   64.6740 S.3     1  ZINC000929592477   -0.1100
      9 C9         -6.6520    1.0716   64.8767 C.3     1  ZINC000929592477   -0.0800
     10 C10        -6.1977    2.4686   64.3859 C.3     1  ZINC000929592477   -0.1200
     11 C11        -4.8727    2.6879   65.1575 C.3     1  ZINC000929592477   -0.1200
     12 C12        -5.1415    2.0819   66.5505 C.3     1  ZINC000929592477   -0.1200
     13 C13        -6.2727    1.0541   66.3720 C.3     1  ZINC000929592477   -0.1000
     14 C14        -9.8670    0.2334   62.4286 C.ar    1  ZINC000929592477   -0.1200
     15 C15        -9.9952   -0.0885   61.0922 C.ar    1  ZINC000929592477   -0.1000
     16 N16        -9.3566    0.1175   56.7220 N.am    1  ZINC000929592477   -0.7300
     17 C17        -9.6127    1.1664   55.7319 C.3     1  ZINC000929592477    0.1500
     18 H18       -10.4013    1.8355   56.0760 H       1  ZINC000929592477    0.1200
     19 C19        -9.9798    0.5463   54.3578 C.3     1  ZINC000929592477   -0.1400
     20 C20        -8.5794    0.2408   53.7703 C.3     1  ZINC000929592477    0.1100
     21 N21        -7.7323    1.3643   54.2102 N.pl3   1  ZINC000929592477   -0.6000
     22 C22        -6.5785    1.7937   53.5869 C.2     1  ZINC000929592477    0.4600
     23 C23        -6.0708    3.0547   53.8517 C.2     1  ZINC000929592477   -0.4000
     24 C24        -4.8966    3.4523   53.1977 C.2     1  ZINC000929592477    0.5300
     25 O25        -4.4139    4.5549   53.4015 O.2     1  ZINC000929592477   -0.5500
     26 N26        -4.3096    2.5929   52.3386 N.am    1  ZINC000929592477   -0.6400
     27 C27        -4.8482    1.3769   52.1188 C.2     1  ZINC000929592477    0.4100
     28 N28        -5.9374    0.9899   52.7239 N.2     1  ZINC000929592477   -0.5700
     29 C29        -8.3220    1.9554   55.4260 C.3     1  ZINC000929592477    0.1100
     30 H30        -8.9165   -1.4523   58.6540 H       1  ZINC000929592477    0.4100
     31 H31        -6.7290   -0.0457   60.2092 H       1  ZINC000929592477    0.1300
     32 H32        -6.4995    0.5368   62.5886 H       1  ZINC000929592477    0.1300
     33 H33        -6.1217    0.2853   64.3396 H       1  ZINC000929592477    0.1000
     34 H34        -6.0217    2.4616   63.3102 H       1  ZINC000929592477    0.0700
     35 H35        -6.9310    3.2294   64.6534 H       1  ZINC000929592477    0.0800
     36 H36        -4.0534    2.1640   64.6652 H       1  ZINC000929592477    0.0700
     37 H37        -4.6513    3.7519   65.2406 H       1  ZINC000929592477    0.0700
     38 H38        -4.2437    1.5880   66.9223 H       1  ZINC000929592477    0.0700
     39 H39        -5.4528    2.8631   67.2438 H       1  ZINC000929592477    0.0700
     40 H40        -7.1331    1.3367   66.9786 H       1  ZINC000929592477    0.0700
     41 H41        -5.9240    0.0617   66.6571 H       1  ZINC000929592477    0.0800
     42 H42       -10.7455    0.3120   63.0519 H       1  ZINC000929592477    0.1300
     43 H43       -10.9738   -0.2654   60.6709 H       1  ZINC000929592477    0.1400
     44 H44        -9.2772   -0.8070   56.4397 H       1  ZINC000929592477    0.4000
     45 H45       -10.5586   -0.3687   54.4843 H       1  ZINC000929592477    0.0900
     46 H46       -10.5163    1.2633   53.7365 H       1  ZINC000929592477    0.0900
     47 H47        -8.1983   -0.6999   54.1676 H       1  ZINC000929592477    0.0700
     48 H48        -8.6246    0.2033   52.6819 H       1  ZINC000929592477    0.0800
     49 H49        -6.5681    3.7162   54.5456 H       1  ZINC000929592477    0.1500
     50 H50        -3.4967    2.8515   51.8769 H       1  ZINC000929592477    0.4200
     51 H51        -4.3632    0.7040   51.4272 H       1  ZINC000929592477    0.2100
     52 H52        -8.5588    3.0047   55.2507 H       1  ZINC000929592477    0.0900
     53 H53        -7.6242    1.8646   56.2583 H       1  ZINC000929592477    0.0800
@<TRIPOS>BOND
     1     1     2    2
     2     2     3   am
     3     2    16   am
     4     3     4    1
     5     3    30    1
     6     4    15   ar
     7     4     5   ar
     8     5     6   ar
     9     5    31    1
    10     6     7   ar
    11     6    32    1
    12     7     8    1
    13     7    14   ar
    14     8     9    1
    15     9    13    1
    16     9    10    1
    17     9    33    1
    18    10    11    1
    19    10    34    1
    20    10    35    1
    21    11    12    1
    22    11    36    1
    23    11    37    1
    24    12    13    1
    25    12    38    1
    26    12    39    1
    27    13    40    1
    28    13    41    1
    29    14    15   ar
    30    14    42    1
    31    15    43    1
    32    16    17    1
    33    16    44    1
    34    17    18    1
    35    17    29    1
    36    17    19    1
    37    19    20    1
    38    19    45    1
    39    19    46    1
    40    20    21    1
    41    20    47    1
    42    20    48    1
    43    21    22    1
    44    21    29    1
    45    22    28    1
    46    22    23    2
    47    23    24    1
    48    23    49    1
    49    24    25    2
    50    24    26   am
    51    26    27    1
    52    26    50    1
    53    27    28    2
    54    27    51    1
    55    29    52    1
    56    29    53    1
@<TRIPOS>SUBSTRUCTURE
     1 ZINC000929592477        1 TEMP              0 ****  ****    0 ROOT


##########                                Name:    ZINC001326371752
##########                DOCK_Rotatable_Bonds:                   5
##########                         Heavy_Atoms:                  25
##########                    Molecular_Weight:             360.397
##########                DOCK_Rotatable_Bonds:                   5
##########                       Formal_Charge:           0.0199999
##########                     HBond_Acceptors:                  10
##########                        HBond_Donors:                   0
##########                         Heavy_Atoms:                  25
##########                          Grid_Score:          -29.999372
##########                     Grid_vdw_energy:          -28.590790
##########                      Grid_es_energy:           -1.408582
##########           Internal_energy_repulsive:            8.117692

@<TRIPOS>MOLECULE
ZINC001326371752
 41 44 1 0 0
SMALL
USER_CHARGES


@<TRIPOS>ATOM
      1 C1         -4.5496    1.5737   51.3043 C.3     1  ZINC001326371752    0.0300
      2 O2         -5.5692    1.9567   52.2294 O.3     1  ZINC001326371752   -0.3800
      3 C3         -6.4598    0.8971   52.5844 C.3     1  ZINC001326371752    0.0500
      4 C4         -7.5018    1.4174   53.5765 C.3     1  ZINC001326371752    0.1200
      5 N5         -8.4668    0.3558   53.8729 N.pl3   1  ZINC001326371752   -0.2800
      6 N6         -8.8400   -0.5777   53.0631 N.2     1  ZINC001326371752   -0.0800
      7 N7         -9.7021   -1.3481   53.6361 N.2     1  ZINC001326371752   -0.2500
      8 C8         -9.9080   -0.9075   54.8719 C.2     1  ZINC001326371752   -0.0400
      9 C9         -9.1148    0.1796   55.0384 C.2     1  ZINC001326371752    0.0000
     10 C10        -9.0257    0.9896   56.3036 C.3     1  ZINC001326371752   -0.0600
     11 C11       -10.2534    0.6845   57.1722 C.3     1  ZINC001326371752    0.1200
     12 N12       -10.4782   -0.7683   57.1994 N.am    1  ZINC001326371752   -0.6100
     13 C13       -10.3693   -1.4618   58.3499 C.2     1  ZINC001326371752    0.6100
     14 O14       -10.5586   -2.6640   58.3560 O.2     1  ZINC001326371752   -0.5100
     15 C15       -10.0227   -0.7673   59.5953 C.2     1  ZINC001326371752   -0.3400
     16 C16       -11.0249   -0.2908   60.4484 C.2     1  ZINC001326371752    0.2400
     17 N17       -10.6765    0.3289   61.5599 N.2     1  ZINC001326371752   -0.5100
     18 C18        -9.4053    0.5130   61.8913 C.2     1  ZINC001326371752    0.2900
     19 S19        -8.7053    1.2792   63.2659 S.3     1  ZINC001326371752    0.2500
     20 C20        -7.0326    0.9957   62.7592 C.2     1  ZINC001326371752   -0.2100
     21 C21        -7.1183    0.3530   61.6068 C.2     1  ZINC001326371752    0.0500
     22 N22        -8.3739    0.0816   61.1190 N.am    1  ZINC001326371752   -0.4600
     23 C23        -8.6721   -0.5726   59.9580 C.2     1  ZINC001326371752    0.5500
     24 O24        -7.7782   -0.9816   59.2374 O.2     1  ZINC001326371752   -0.5000
     25 C25       -10.8227   -1.4518   55.9397 C.3     1  ZINC001326371752    0.2000
     26 H26        -3.9158    2.4331   51.0858 H       1  ZINC001326371752    0.0900
     27 H27        -3.9452    0.7775   51.7389 H       1  ZINC001326371752    0.0500
     28 H28        -5.0102    1.2182   50.3826 H       1  ZINC001326371752    0.0500
     29 H29        -6.9621    0.5293   51.6895 H       1  ZINC001326371752    0.0600
     30 H30        -5.8947    0.0858   53.0432 H       1  ZINC001326371752    0.0600
     31 H31        -7.0055    1.7246   54.4970 H       1  ZINC001326371752    0.1200
     32 H32        -8.0226    2.2708   53.1423 H       1  ZINC001326371752    0.1200
     33 H33        -8.1188    0.7220   56.8458 H       1  ZINC001326371752    0.0900
     34 H34        -9.0070    2.0512   56.0574 H       1  ZINC001326371752    0.1000
     35 H35       -10.0807    1.0452   58.1862 H       1  ZINC001326371752    0.1100
     36 H36       -11.1286    1.1805   56.7526 H       1  ZINC001326371752    0.0800
     37 H37       -12.0670   -0.4281   60.2005 H       1  ZINC001326371752    0.1900
     38 H38        -6.1327    1.2867   63.2807 H       1  ZINC001326371752    0.2200
     39 H39        -6.2324    0.0518   61.0677 H       1  ZINC001326371752    0.2000
     40 H40       -11.8592   -1.2426   55.6753 H       1  ZINC001326371752    0.1000
     41 H41       -10.6758   -2.5263   56.0482 H       1  ZINC001326371752    0.1000
@<TRIPOS>BOND
     1     1     2    1
     2     1    26    1
     3     1    27    1
     4     1    28    1
     5     2     3    1
     6     3     4    1
     7     3    29    1
     8     3    30    1
     9     4     5    1
    10     4    31    1
    11     4    32    1
    12     5     9    1
    13     5     6    1
    14     6     7    2
    15     7     8    1
    16     8    25    1
    17     8     9    2
    18     9    10    1
    19    10    11    1
    20    10    33    1
    21    10    34    1
    22    11    12    1
    23    11    35    1
    24    11    36    1
    25    12    13   am
    26    12    25    1
    27    13    14    2
    28    13    15    1
    29    15    23    1
    30    15    16    2
    31    16    17    1
    32    16    37    1
    33    17    18    2
    34    18    22    1
    35    18    19    1
    36    19    20    1
    37    20    21    2
    38    20    38    1
    39    21    22    1
    40    21    39    1
    41    22    23   am
    42    23    24    2
    43    25    40    1
    44    25    41    1
@<TRIPOS>SUBSTRUCTURE
     1 ZINC001326371752        1 TEMP              0 ****  ****    0 ROOT


##########                                Name:    ZINC000859608860
##########                DOCK_Rotatable_Bonds:                   8
##########                         Heavy_Atoms:                  24
##########                    Molecular_Weight:             394.268
##########                DOCK_Rotatable_Bonds:                   8
##########                       Formal_Charge:          -0.0200003
##########                     HBond_Acceptors:                   6
##########                        HBond_Donors:                   1
##########                         Heavy_Atoms:                  24
##########                          Grid_Score:          -29.981400
##########                     Grid_vdw_energy:          -29.691175
##########                      Grid_es_energy:           -0.290223
##########           Internal_energy_repulsive:            8.444178

@<TRIPOS>MOLECULE
ZINC000859608860
 44 45 1 0 0
SMALL
USER_CHARGES


@<TRIPOS>ATOM
      1 C1        -12.3918   -0.5402   59.0614 C.3     1  ZINC000859608860   -0.1400
      2 C2        -13.0931   -1.7934   58.5332 C.3     1  ZINC000859608860   -0.0800
      3 C3        -13.9164   -2.4284   59.6556 C.3     1  ZINC000859608860   -0.1400
      4 C4        -14.0180   -1.4106   57.3761 C.3     1  ZINC000859608860   -0.1400
      5 C5        -12.0461   -2.7940   58.0398 C.3     1  ZINC000859608860    0.1300
      6 N6        -11.3982   -2.2687   56.8354 N.am    1  ZINC000859608860   -0.7300
      7 C7        -10.1098   -2.5690   56.5779 C.2     1  ZINC000859608860    0.5100
      8 O8         -9.4863   -3.2727   57.3441 O.2     1  ZINC000859608860   -0.5100
      9 C9         -9.4438   -2.0302   55.3381 C.3     1  ZINC000859608860    0.0500
     10 O10       -10.3972   -2.0180   54.2430 O.3     1  ZINC000859608860   -0.3100
     11 C11       -10.1198   -1.2116   53.1990 C.2     1  ZINC000859608860    0.5600
     12 O12       -10.9975   -0.9101   52.4141 O.2     1  ZINC000859608860   -0.5100
     13 C13        -8.7545   -0.6964   53.0096 C.2     1  ZINC000859608860   -0.0400
     14 C14        -8.2707    0.4942   53.4704 C.2     1  ZINC000859608860    0.0500
     15 N15        -6.9713    0.5699   53.0736 N.pl3   1  ZINC000859608860   -0.4100
     16 C16        -6.0869    1.6275   53.3303 C.ar    1  ZINC000859608860    0.1400
     17 C17        -6.1127    2.2727   54.5592 C.ar    1  ZINC000859608860   -0.1200
     18 C18        -5.2403    3.3138   54.8098 C.ar    1  ZINC000859608860   -0.0600
     19 C19        -4.3413    3.7138   53.8371 C.ar    1  ZINC000859608860   -0.1000
     20 Br20       -3.1484    5.1395   54.1835 Br      1  ZINC000859608860   -0.0300
     21 C21        -4.3133    3.0721   52.6117 C.ar    1  ZINC000859608860   -0.0600
     22 C22        -5.1803    2.0274   52.3579 C.ar    1  ZINC000859608860   -0.1200
     23 C23        -6.6856   -0.5674   52.3823 C.2     1  ZINC000859608860    0.2000
     24 N24        -7.7456   -1.3217   52.3499 N.2     1  ZINC000859608860   -0.4300
     25 H25       -11.7329   -0.8128   59.8858 H       1  ZINC000859608860    0.0500
     26 H26       -11.8054   -0.0878   58.2617 H       1  ZINC000859608860    0.0600
     27 H27       -13.1377    0.1727   59.4129 H       1  ZINC000859608860    0.0600
     28 H28       -14.6622   -1.7155   60.0071 H       1  ZINC000859608860    0.0600
     29 H29       -14.4161   -3.3211   59.2794 H       1  ZINC000859608860    0.0600
     30 H30       -13.2574   -2.7010   60.4800 H       1  ZINC000859608860    0.0500
     31 H31       -13.4315   -0.9583   56.5764 H       1  ZINC000859608860    0.0600
     32 H32       -14.5176   -2.3034   56.9998 H       1  ZINC000859608860    0.0600
     33 H33       -14.7639   -0.6978   57.7276 H       1  ZINC000859608860    0.0600
     34 H34       -11.2975   -2.9493   58.8167 H       1  ZINC000859608860    0.0700
     35 H35       -12.5309   -3.7421   57.8075 H       1  ZINC000859608860    0.0700
     36 H36       -11.8965   -1.7049   56.2233 H       1  ZINC000859608860    0.4000
     37 H37        -9.0931   -1.0153   55.5258 H       1  ZINC000859608860    0.1000
     38 H38        -8.5971   -2.6645   55.0756 H       1  ZINC000859608860    0.1000
     39 H39        -8.8145    1.2336   54.0398 H       1  ZINC000859608860    0.2000
     40 H40        -6.8146    1.9611   55.3186 H       1  ZINC000859608860    0.1400
     41 H41        -5.2604    3.8162   55.7656 H       1  ZINC000859608860    0.1500
     42 H42        -3.6106    3.3862   51.8541 H       1  ZINC000859608860    0.1500
     43 H43        -5.1581    1.5268   51.4012 H       1  ZINC000859608860    0.1500
     44 H44        -5.7317   -0.8070   51.9361 H       1  ZINC000859608860    0.2200
@<TRIPOS>BOND
     1     1     2    1
     2     1    25    1
     3     1    26    1
     4     1    27    1
     5     2     3    1
     6     2     4    1
     7     2     5    1
     8     3    28    1
     9     3    29    1
    10     3    30    1
    11     4    31    1
    12     4    32    1
    13     4    33    1
    14     5     6    1
    15     5    34    1
    16     5    35    1
    17     6     7   am
    18     6    36    1
    19     7     8    2
    20     7     9    1
    21     9    10    1
    22     9    37    1
    23     9    38    1
    24    10    11    1
    25    11    12    2
    26    11    13    1
    27    13    24    1
    28    13    14    2
    29    14    15    1
    30    14    39    1
    31    15    16    1
    32    15    23    1
    33    16    22   ar
    34    16    17   ar
    35    17    18   ar
    36    17    40    1
    37    18    19   ar
    38    18    41    1
    39    19    20    1
    40    19    21   ar
    41    21    22   ar
    42    21    42    1
    43    22    43    1
    44    23    24    2
    45    23    44    1
@<TRIPOS>SUBSTRUCTURE
     1 ZINC000859608860        1 TEMP              0 ****  ****    0 ROOT


##########                                Name:    ZINC000548281822
##########                DOCK_Rotatable_Bonds:                   6
##########                         Heavy_Atoms:                  24
##########                    Molecular_Weight:             332.406
##########                DOCK_Rotatable_Bonds:                   6
##########                       Formal_Charge:        -5.58794e-08
##########                     HBond_Acceptors:                   8
##########                        HBond_Donors:                   2
##########                         Heavy_Atoms:                  24
##########                          Grid_Score:          -29.946798
##########                     Grid_vdw_energy:          -30.324930
##########                      Grid_es_energy:            0.378131
##########           Internal_energy_repulsive:            6.980387

@<TRIPOS>MOLECULE
ZINC000548281822
 48 50 1 0 0
SMALL
USER_CHARGES


@<TRIPOS>ATOM
      1 C1        -12.0736    0.3626   53.2914 C.3     1  ZINC000548281822   -0.1700
      2 C2        -10.5999   -0.0307   53.4136 C.3     1  ZINC000548281822    0.2600
      3 H3        -10.3199   -0.6577   52.5671 H       1  ZINC000548281822    0.1400
      4 N4         -9.7712    1.1773   53.4218 N.am    1  ZINC000548281822   -0.7400
      5 C5         -8.4439    1.0854   53.2071 C.2     1  ZINC000548281822    0.7100
      6 O6         -7.9339   -0.0002   53.0080 O.2     1  ZINC000548281822   -0.5700
      7 N7         -7.6817    2.1970   53.2131 N.am    1  ZINC000548281822   -0.7400
      8 C8         -6.2391    2.0973   52.9780 C.3     1  ZINC000548281822    0.1600
      9 H9         -5.8752    1.1392   53.3491 H       1  ZINC000548281822    0.1000
     10 C10        -5.9571    2.2044   51.4765 C.3     1  ZINC000548281822   -0.1400
     11 C11        -4.4865    1.8676   51.2068 C.3     1  ZINC000548281822    0.1100
     12 N12        -3.6478    2.6584   52.1105 N.pl3   1  ZINC000548281822   -0.4600
     13 C13        -2.3132    2.9135   52.0021 C.2     1  ZINC000548281822   -0.0500
     14 C14        -1.9786    3.6818   53.0587 C.2     1  ZINC000548281822   -0.0300
     15 N15        -3.0853    3.8877   53.7911 N.2     1  ZINC000548281822   -0.4900
     16 C16        -4.0888    3.2782   53.2309 C.2     1  ZINC000548281822    0.2100
     17 C17        -5.5206    3.2371   53.7110 C.3     1  ZINC000548281822   -0.0500
     18 C18       -10.3884   -0.7938   54.6957 C.2     1  ZINC000548281822    0.1700
     19 N19       -10.9974   -0.5856   55.8381 N.2     1  ZINC000548281822   -0.4600
     20 C20       -10.4931   -1.4972   56.6887 C.2     1  ZINC000548281822    0.1900
     21 C21       -10.8721   -1.6716   58.1368 C.3     1  ZINC000548281822    0.0200
     22 C22       -12.2277   -1.0098   58.3925 C.3     1  ZINC000548281822   -0.1400
     23 C23       -10.9631   -3.1634   58.4641 C.3     1  ZINC000548281822   -0.1400
     24 C24        -9.8104   -1.0186   59.0241 C.3     1  ZINC000548281822   -0.1400
     25 N25        -9.6193   -2.2004   56.0324 N.2     1  ZINC000548281822   -0.3700
     26 O26        -9.5483   -1.8160   54.8840 O.3     1  ZINC000548281822    0.0800
     27 H27       -12.3537    0.9896   54.1379 H       1  ZINC000548281822    0.0700
     28 H28       -12.2266    0.9145   52.3640 H       1  ZINC000548281822    0.0900
     29 H29       -12.6902   -0.5362   53.2852 H       1  ZINC000548281822    0.0800
     30 H30       -10.1779    2.0434   53.5819 H       1  ZINC000548281822    0.4000
     31 H31        -8.0883    3.0630   53.3732 H       1  ZINC000548281822    0.4000
     32 H32        -6.5949    1.5050   50.9362 H       1  ZINC000548281822    0.1000
     33 H33        -6.1648    3.2201   51.1395 H       1  ZINC000548281822    0.0800
     34 H34        -4.3162    0.8060   51.3856 H       1  ZINC000548281822    0.0900
     35 H35        -4.2396    2.1104   50.1732 H       1  ZINC000548281822    0.1000
     36 H36        -1.6518    2.5669   51.2218 H       1  ZINC000548281822    0.1800
     37 H37        -0.9927    4.0642   53.2780 H       1  ZINC000548281822    0.1700
     38 H38        -6.0108    4.1846   53.4871 H       1  ZINC000548281822    0.0900
     39 H39        -5.5430    3.0558   54.7856 H       1  ZINC000548281822    0.1000
     40 H40       -12.9841   -1.4750   57.7603 H       1  ZINC000548281822    0.0600
     41 H41       -12.5019   -1.1358   59.4398 H       1  ZINC000548281822    0.0700
     42 H42       -12.1629    0.0531   58.1592 H       1  ZINC000548281822    0.0700
     43 H43        -9.9974   -3.6348   58.2820 H       1  ZINC000548281822    0.0600
     44 H44       -11.2373   -3.2894   59.5115 H       1  ZINC000548281822    0.0700
     45 H45       -11.7195   -3.6286   57.8321 H       1  ZINC000548281822    0.0600
     46 H46        -9.7455    0.0442   58.7909 H       1  ZINC000548281822    0.0700
     47 H47       -10.0846   -1.1447   60.0714 H       1  ZINC000548281822    0.0700
     48 H48        -8.8447   -1.4901   58.8420 H       1  ZINC000548281822    0.0600
@<TRIPOS>BOND
     1     1     2    1
     2     1    27    1
     3     1    28    1
     4     1    29    1
     5     2     3    1
     6     2     4    1
     7     2    18    1
     8     4     5   am
     9     4    30    1
    10     5     6    2
    11     5     7   am
    12     7     8    1
    13     7    31    1
    14     8     9    1
    15     8    17    1
    16     8    10    1
    17    10    11    1
    18    10    32    1
    19    10    33    1
    20    11    12    1
    21    11    34    1
    22    11    35    1
    23    12    16    1
    24    12    13    1
    25    13    14    2
    26    13    36    1
    27    14    15    1
    28    14    37    1
    29    15    16    2
    30    16    17    1
    31    17    38    1
    32    17    39    1
    33    18    26    1
    34    18    19    2
    35    19    20    1
    36    20    21    1
    37    20    25    2
    38    21    22    1
    39    21    23    1
    40    21    24    1
    41    22    40    1
    42    22    41    1
    43    22    42    1
    44    23    43    1
    45    23    44    1
    46    23    45    1
    47    24    46    1
    48    24    47    1
    49    24    48    1
    50    25    26    1
@<TRIPOS>SUBSTRUCTURE
     1 ZINC000548281822        1 TEMP              0 ****  ****    0 ROOT


##########                                Name:    ZINC000465392830
##########                DOCK_Rotatable_Bonds:                   8
##########                         Heavy_Atoms:                  29
##########                    Molecular_Weight:             419.588
##########                DOCK_Rotatable_Bonds:                   8
##########                       Formal_Charge:           0.0199996
##########                     HBond_Acceptors:                   7
##########                        HBond_Donors:                   0
##########                         Heavy_Atoms:                  29
##########                          Grid_Score:          -29.940990
##########                     Grid_vdw_energy:          -28.777586
##########                      Grid_es_energy:           -1.163405
##########           Internal_energy_repulsive:           23.772341

@<TRIPOS>MOLECULE
ZINC000465392830
 62 64 1 0 0
SMALL
USER_CHARGES


@<TRIPOS>ATOM
      1 C1        -13.9496   -2.4718   59.2865 C.3     1  ZINC000465392830    0.0400
      2 O2        -12.9535   -1.4275   59.4468 O.3     1  ZINC000465392830   -0.3600
      3 C3        -13.3864   -0.2345   59.8839 C.2     1  ZINC000465392830    0.4600
      4 O4        -14.5566   -0.0720   60.1371 O.2     1  ZINC000465392830   -0.4900
      5 C5        -12.4127    0.9024   60.0587 C.3     1  ZINC000465392830    0.1500
      6 H6        -12.9285    1.8545   59.9342 H       1  ZINC000465392830    0.1100
      7 C7        -11.7705    0.8326   61.4601 C.3     1  ZINC000465392830   -0.1100
      8 C8        -10.3005    1.2493   61.1899 C.3     1  ZINC000465392830   -0.0900
      9 H9        -10.2022    2.3343   61.1541 H       1  ZINC000465392830    0.1000
     10 C10        -9.3594    0.6507   62.2373 C.3     1  ZINC000465392830   -0.0800
     11 C11        -7.9243    1.0942   61.9464 C.3     1  ZINC000465392830   -0.1200
     12 C12        -6.9833    0.4956   62.9937 C.3     1  ZINC000465392830   -0.1200
     13 C13        -7.3947    0.9803   64.3854 C.3     1  ZINC000465392830   -0.1200
     14 C14        -8.8297    0.5367   64.6763 C.3     1  ZINC000465392830   -0.1200
     15 C15        -9.7708    1.1353   63.6289 C.3     1  ZINC000465392830   -0.1200
     16 C16       -10.0509    0.6228   59.7953 C.3     1  ZINC000465392830    0.1000
     17 N17       -11.3286    0.7883   59.0720 N.am    1  ZINC000465392830   -0.6100
     18 C18       -11.4740    0.8248   57.7326 C.2     1  ZINC000465392830    0.5400
     19 O19       -12.5762    0.9624   57.2458 O.2     1  ZINC000465392830   -0.5300
     20 C20       -10.2668    0.6948   56.8399 C.3     1  ZINC000465392830   -0.1300
     21 C21       -10.6021    1.2326   55.4473 C.3     1  ZINC000465392830   -0.0600
     22 C22        -9.3710    1.1820   54.5795 C.ar    1  ZINC000465392830   -0.2000
     23 C23        -9.0914    0.0619   53.8120 C.ar    1  ZINC000465392830    0.2000
     24 C24       -10.0171   -1.1271   53.8326 C.3     1  ZINC000465392830   -0.1100
     25 N25        -8.0026    0.0496   53.0613 N.ar    1  ZINC000465392830   -0.5000
     26 C26        -7.1840    1.0919   53.0379 C.ar    1  ZINC000465392830    0.3000
     27 S27        -5.7446    1.0327   52.0233 S.3     1  ZINC000465392830    0.0000
     28 C28        -4.9923    2.6221   52.4520 C.3     1  ZINC000465392830   -0.1400
     29 N29        -7.4229    2.1779   53.7594 N.ar    1  ZINC000465392830   -0.5300
     30 C30        -8.4970    2.2566   54.5271 C.ar    1  ZINC000465392830    0.2000
     31 C31        -8.7612    3.4950   55.3442 C.3     1  ZINC000465392830   -0.1100
     32 H32       -14.4284   -2.6676   60.2460 H       1  ZINC000465392830    0.0600
     33 H33       -14.7004   -2.1502   58.5647 H       1  ZINC000465392830    0.0600
     34 H34       -13.4677   -3.3817   58.9287 H       1  ZINC000465392830    0.1000
     35 H35       -12.2517    1.5355   62.1403 H       1  ZINC000465392830    0.1000
     36 H36       -11.8172   -0.1819   61.8557 H       1  ZINC000465392830    0.0800
     37 H37        -9.4183   -0.4371   62.1993 H       1  ZINC000465392830    0.0800
     38 H38        -7.6312    0.7490   60.9549 H       1  ZINC000465392830    0.0600
     39 H39        -7.8654    2.1820   61.9844 H       1  ZINC000465392830    0.0700
     40 H40        -7.0421   -0.5922   62.9557 H       1  ZINC000465392830    0.0600
     41 H41        -5.9608    0.8116   62.7865 H       1  ZINC000465392830    0.0600
     42 H42        -6.7242    0.5538   65.1316 H       1  ZINC000465392830    0.0600
     43 H43        -7.3357    2.0680   64.4234 H       1  ZINC000465392830    0.0600
     44 H44        -8.8887   -0.5511   64.6383 H       1  ZINC000465392830    0.0600
     45 H45        -9.1229    0.8820   65.6678 H       1  ZINC000465392830    0.0600
     46 H46        -9.7120    2.2231   63.6670 H       1  ZINC000465392830    0.0700
     47 H47       -10.7932    0.8193   63.8363 H       1  ZINC000465392830    0.0600
     48 H48        -9.2522    1.1542   59.2781 H       1  ZINC000465392830    0.0900
     49 H49        -9.8033   -0.4342   59.8932 H       1  ZINC000465392830    0.0800
     50 H50        -9.4401    1.2671   57.2611 H       1  ZINC000465392830    0.1000
     51 H51        -9.9815   -0.3545   56.7652 H       1  ZINC000465392830    0.1000
     52 H52       -11.3866    0.6215   55.0010 H       1  ZINC000465392830    0.0900
     53 H53       -10.9468    2.2634   55.5292 H       1  ZINC000465392830    0.0900
     54 H54       -10.7737   -1.0118   53.0565 H       1  ZINC000465392830    0.0900
     55 H55        -9.4445   -2.0365   53.6496 H       1  ZINC000465392830    0.0900
     56 H56       -10.5023   -1.1930   54.8063 H       1  ZINC000465392830    0.0900
     57 H57        -5.6797    3.4294   52.1989 H       1  ZINC000465392830    0.0900
     58 H58        -4.7802    2.6473   53.5207 H       1  ZINC000465392830    0.0900
     59 H59        -4.0642    2.7470   51.8942 H       1  ZINC000465392830    0.1100
     60 H60        -9.3549    4.1969   54.7586 H       1  ZINC000465392830    0.0900
     61 H61        -9.3064    3.2241   56.2484 H       1  ZINC000465392830    0.0900
     62 H62        -7.8136    3.9595   55.6167 H       1  ZINC000465392830    0.0800
@<TRIPOS>BOND
     1     1     2    1
     2     1    32    1
     3     1    33    1
     4     1    34    1
     5     2     3    1
     6     3     4    2
     7     3     5    1
     8     5     6    1
     9     5    17    1
    10     5     7    1
    11     7     8    1
    12     7    35    1
    13     7    36    1
    14     8     9    1
    15     8    10    1
    16     8    16    1
    17    10    15    1
    18    10    11    1
    19    10    37    1
    20    11    12    1
    21    11    38    1
    22    11    39    1
    23    12    13    1
    24    12    40    1
    25    12    41    1
    26    13    14    1
    27    13    42    1
    28    13    43    1
    29    14    15    1
    30    14    44    1
    31    14    45    1
    32    15    46    1
    33    15    47    1
    34    16    17    1
    35    16    48    1
    36    16    49    1
    37    17    18   am
    38    18    19    2
    39    18    20    1
    40    20    21    1
    41    20    50    1
    42    20    51    1
    43    21    22    1
    44    21    52    1
    45    21    53    1
    46    22    30   ar
    47    22    23   ar
    48    23    24    1
    49    23    25   ar
    50    24    54    1
    51    24    55    1
    52    24    56    1
    53    25    26   ar
    54    26    27    1
    55    26    29   ar
    56    27    28    1
    57    28    57    1
    58    28    58    1
    59    28    59    1
    60    29    30   ar
    61    30    31    1
    62    31    60    1
    63    31    61    1
    64    31    62    1
@<TRIPOS>SUBSTRUCTURE
     1 ZINC000465392830        1 TEMP              0 ****  ****    0 ROOT


##########                                Name:    ZINC000892249927
##########                DOCK_Rotatable_Bonds:                   8
##########                         Heavy_Atoms:                  27
##########                    Molecular_Weight:             364.487
##########                DOCK_Rotatable_Bonds:                   8
##########                       Formal_Charge:          -0.0300015
##########                     HBond_Acceptors:                   4
##########                        HBond_Donors:                   1
##########                         Heavy_Atoms:                  27
##########                          Grid_Score:          -29.940453
##########                     Grid_vdw_energy:          -28.276449
##########                      Grid_es_energy:           -1.664003
##########           Internal_energy_repulsive:            9.839601

@<TRIPOS>MOLECULE
ZINC000892249927
 55 58 1 0 0
SMALL
USER_CHARGES


@<TRIPOS>ATOM
      1 O1         -5.4347    2.8591   67.7725 O.2     1  ZINC000892249927   -0.5300
      2 C2         -4.9311    2.1906   66.8948 C.2     1  ZINC000892249927    0.5100
      3 C3         -3.5032    1.7270   67.0261 C.3     1  ZINC000892249927   -0.1400
      4 C4         -2.7830    1.9083   65.6884 C.3     1  ZINC000892249927   -0.1000
      5 C5         -1.2704    1.8573   65.9125 C.3     1  ZINC000892249927   -0.0800
      6 C6         -0.5642    1.8870   64.5815 C.ar    1  ZINC000892249927   -0.0900
      7 C7         -0.0850    0.7150   64.0270 C.ar    1  ZINC000892249927   -0.1100
      8 C8          0.5629    0.7423   62.8061 C.ar    1  ZINC000892249927   -0.1100
      9 C9          0.7311    1.9416   62.1395 C.ar    1  ZINC000892249927   -0.0500
     10 C10         1.4377    1.9714   60.8088 C.3     1  ZINC000892249927   -0.1200
     11 C11         2.9147    2.3709   60.8022 C.3     1  ZINC000892249927   -0.1800
     12 C12         2.5149    0.9145   60.5572 C.3     1  ZINC000892249927   -0.1700
     13 C13         0.2505    3.1135   62.6935 C.ar    1  ZINC000892249927   -0.1200
     14 C14        -0.4007    3.0856   63.9125 C.ar    1  ZINC000892249927   -0.1100
     15 N15        -5.6501    1.8574   65.8046 N.am    1  ZINC000892249927   -0.7300
     16 C16        -7.0382    2.3080   65.6770 C.3     1  ZINC000892249927    0.1400
     17 H17        -7.1143    3.3487   65.9922 H       1  ZINC000892249927    0.1000
     18 C18        -7.9421    1.4389   66.5568 C.3     1  ZINC000892249927   -0.1700
     19 C19        -7.8877   -0.0076   66.0584 C.3     1  ZINC000892249927    0.0600
     20 O20        -8.2873   -0.0530   64.6871 O.3     1  ZINC000892249927   -0.3700
     21 C21        -7.4501    0.7034   63.8102 C.3     1  ZINC000892249927    0.1400
     22 H22        -6.4269    0.3336   63.8756 H       1  ZINC000892249927    0.0700
     23 C23        -7.9465    0.5608   62.3944 C.ar    1  ZINC000892249927   -0.1400
     24 C24        -9.3009    0.6505   62.1131 C.ar    1  ZINC000892249927   -0.0700
     25 C25        -9.7120    0.5136   60.7958 C.ar    1  ZINC000892249927   -0.1700
     26 C26        -8.7646    0.2939   59.8142 C.ar    1  ZINC000892249927    0.1000
     27 N27        -7.4838    0.2142   60.1186 N.ar    1  ZINC000892249927   -0.4900
     28 C28        -7.0565    0.3448   61.3591 C.ar    1  ZINC000892249927    0.1300
     29 C29        -7.4862    2.1806   64.2178 C.3     1  ZINC000892249927   -0.1500
     30 H30        -2.9991    2.3156   67.7928 H       1  ZINC000892249927    0.0900
     31 H31        -3.4873    0.6741   67.3075 H       1  ZINC000892249927    0.0900
     32 H32        -3.0766    1.1101   65.0066 H       1  ZINC000892249927    0.0700
     33 H33        -3.0542    2.8721   65.2575 H       1  ZINC000892249927    0.0700
     34 H34        -0.9619    2.7173   66.5068 H       1  ZINC000892249927    0.0700
     35 H35        -1.0121    0.9393   66.4403 H       1  ZINC000892249927    0.0700
     36 H36        -0.2163   -0.2220   64.5477 H       1  ZINC000892249927    0.1200
     37 H37         0.9380   -0.1733   62.3732 H       1  ZINC000892249927    0.1200
     38 H38         0.8284    2.2812   59.9598 H       1  ZINC000892249927    0.1100
     39 H39         3.2772    2.9437   59.9486 H       1  ZINC000892249927    0.1000
     40 H40         3.3752    2.6121   61.7603 H       1  ZINC000892249927    0.1000
     41 H41         2.7124    0.1976   61.3541 H       1  ZINC000892249927    0.1000
     42 H42         2.6145    0.5291   59.5425 H       1  ZINC000892249927    0.1000
     43 H43         0.3816    4.0504   62.1725 H       1  ZINC000892249927    0.1200
     44 H44        -0.7760    4.0012   64.3452 H       1  ZINC000892249927    0.1200
     45 H45        -5.2485    1.3194   65.1046 H       1  ZINC000892249927    0.4000
     46 H46        -7.5955    1.4817   67.5893 H       1  ZINC000892249927    0.0800
     47 H47        -8.9671    1.8054   66.5001 H       1  ZINC000892249927    0.0800
     48 H48        -6.8702   -0.3868   66.1532 H       1  ZINC000892249927    0.0500
     49 H49        -8.5621   -0.6229   66.6541 H       1  ZINC000892249927    0.1000
     50 H50       -10.0191    0.8225   62.9013 H       1  ZINC000892249927    0.1300
     51 H51       -10.7594    0.5775   60.5404 H       1  ZINC000892249927    0.1400
     52 H52        -9.0766    0.1858   58.7859 H       1  ZINC000892249927    0.1600
     53 H53        -5.9996    0.2735   61.5699 H       1  ZINC000892249927    0.1600
     54 H54        -8.5019    2.5626   64.1137 H       1  ZINC000892249927    0.0900
     55 H55        -6.8140    2.7517   63.5774 H       1  ZINC000892249927    0.0800
@<TRIPOS>BOND
     1     1     2    2
     2     2     3    1
     3     2    15   am
     4     3     4    1
     5     3    30    1
     6     3    31    1
     7     4     5    1
     8     4    32    1
     9     4    33    1
    10     5     6    1
    11     5    34    1
    12     5    35    1
    13     6    14   ar
    14     6     7   ar
    15     7     8   ar
    16     7    36    1
    17     8     9   ar
    18     8    37    1
    19     9    10    1
    20     9    13   ar
    21    10    12    1
    22    10    11    1
    23    10    38    1
    24    11    12    1
    25    11    39    1
    26    11    40    1
    27    12    41    1
    28    12    42    1
    29    13    14   ar
    30    13    43    1
    31    14    44    1
    32    15    16    1
    33    15    45    1
    34    16    17    1
    35    16    29    1
    36    16    18    1
    37    18    19    1
    38    18    46    1
    39    18    47    1
    40    19    20    1
    41    19    48    1
    42    19    49    1
    43    20    21    1
    44    21    22    1
    45    21    23    1
    46    21    29    1
    47    23    28   ar
    48    23    24   ar
    49    24    25   ar
    50    24    50    1
    51    25    26   ar
    52    25    51    1
    53    26    27   ar
    54    26    52    1
    55    27    28   ar
    56    28    53    1
    57    29    54    1
    58    29    55    1
@<TRIPOS>SUBSTRUCTURE
     1 ZINC000892249927        1 TEMP              0 ****  ****    0 ROOT


##########                                Name:    ZINC000918875053
##########                DOCK_Rotatable_Bonds:                   6
##########                         Heavy_Atoms:                  26
##########                    Molecular_Weight:             359.357
##########                DOCK_Rotatable_Bonds:                   6
##########                       Formal_Charge:           0.0200003
##########                     HBond_Acceptors:                   8
##########                        HBond_Donors:                   0
##########                         Heavy_Atoms:                  26
##########                          Grid_Score:          -29.875654
##########                     Grid_vdw_energy:          -28.400114
##########                      Grid_es_energy:           -1.475541
##########           Internal_energy_repulsive:            6.075385

@<TRIPOS>MOLECULE
ZINC000918875053
 44 47 1 0 0
SMALL
USER_CHARGES


@<TRIPOS>ATOM
      1 C1        -11.7982   -0.7528   52.5034 C.3     1  ZINC000918875053   -0.1700
      2 C2        -10.9633   -0.6759   53.7833 C.3     1  ZINC000918875053    0.1900
      3 H3        -11.3416    0.1269   54.4162 H       1  ZINC000918875053    0.1400
      4 O4        -11.0529   -1.9376   54.4963 O.3     1  ZINC000918875053   -0.3400
      5 C5        -10.3214   -2.0585   55.6153 C.2     1  ZINC000918875053    0.4800
      6 O6         -9.3271   -2.7449   55.6158 O.2     1  ZINC000918875053   -0.4900
      7 C7        -10.7404   -1.3381   56.8709 C.3     1  ZINC000918875053   -0.0900
      8 H8        -11.5295   -0.6166   56.6594 H       1  ZINC000918875053    0.1400
      9 C9        -11.1847   -2.3401   57.9616 C.3     1  ZINC000918875053   -0.1400
     10 C10       -10.6801   -1.7320   59.2516 C.2     1  ZINC000918875053    0.5300
     11 O11       -11.0515   -2.0501   60.3616 O.2     1  ZINC000918875053   -0.5000
     12 N12        -9.7600   -0.7880   58.9889 N.am    1  ZINC000918875053   -0.5800
     13 C13        -9.1043   -0.0297   59.9669 C.ar    1  ZINC000918875053    0.1000
     14 C14        -7.8022   -0.3414   60.3315 C.ar    1  ZINC000918875053   -0.0800
     15 C15        -7.1575    0.4088   61.2964 C.ar    1  ZINC000918875053   -0.1200
     16 C16        -7.8076    1.4692   61.8996 C.ar    1  ZINC000918875053   -0.0800
     17 C17        -9.1055    1.7839   61.5397 C.ar    1  ZINC000918875053   -0.1500
     18 C18        -9.7548    1.0412   60.5709 C.ar    1  ZINC000918875053    0.1100
     19 F19       -11.0223    1.3487   60.2189 F       1  ZINC000918875053   -0.1300
     20 C20        -9.5310   -0.6531   57.5449 C.3     1  ZINC000918875053    0.1200
     21 C21        -9.5247   -0.4005   53.4288 C.2     1  ZINC000918875053    0.1800
     22 N22        -8.8669    0.7134   53.6436 N.2     1  ZINC000918875053   -0.4600
     23 C23        -7.6277    0.4999   53.1663 C.2     1  ZINC000918875053    0.2100
     24 C24        -6.4860    1.4834   53.1773 C.3     1  ZINC000918875053   -0.0900
     25 C25        -5.3227    1.2263   52.2173 C.3     1  ZINC000918875053   -0.1600
     26 C26        -6.3036    2.3679   51.9422 C.3     1  ZINC000918875053   -0.1500
     27 N27        -7.5958   -0.7103   52.6942 N.2     1  ZINC000918875053   -0.3700
     28 O28        -8.6739   -1.2467   52.8406 O.3     1  ZINC000918875053    0.1000
     29 H29       -12.8387   -0.9521   52.7598 H       1  ZINC000918875053    0.0900
     30 H30       -11.7307    0.1942   51.9682 H       1  ZINC000918875053    0.0900
     31 H31       -11.4198   -1.5556   51.8705 H       1  ZINC000918875053    0.0800
     32 H32       -12.2710   -2.4270   57.9801 H       1  ZINC000918875053    0.1300
     33 H33       -10.7258   -3.3146   57.7942 H       1  ZINC000918875053    0.1100
     34 H34        -7.2930   -1.1700   59.8617 H       1  ZINC000918875053    0.1400
     35 H35        -6.1440    0.1661   61.5800 H       1  ZINC000918875053    0.1400
     36 H36        -7.3011    2.0531   62.6538 H       1  ZINC000918875053    0.1400
     37 H37        -9.6107    2.6130   62.0128 H       1  ZINC000918875053    0.1400
     38 H38        -8.6066   -1.1562   57.2610 H       1  ZINC000918875053    0.1000
     39 H39        -9.4890    0.3998   57.2664 H       1  ZINC000918875053    0.1000
     40 H40        -6.2508    1.9198   54.1480 H       1  ZINC000918875053    0.1400
     41 H41        -4.3219    1.4934   52.5564 H       1  ZINC000918875053    0.1100
     42 H42        -5.3833    0.3457   51.5777 H       1  ZINC000918875053    0.1000
     43 H43        -7.0094    2.2384   51.1218 H       1  ZINC000918875053    0.1000
     44 H44        -5.9479    3.3860   52.1004 H       1  ZINC000918875053    0.1100
@<TRIPOS>BOND
     1     1     2    1
     2     1    29    1
     3     1    30    1
     4     1    31    1
     5     2     3    1
     6     2     4    1
     7     2    21    1
     8     4     5    1
     9     5     6    2
    10     5     7    1
    11     7     8    1
    12     7    20    1
    13     7     9    1
    14     9    10    1
    15     9    32    1
    16     9    33    1
    17    10    11    2
    18    10    12   am
    19    12    13    1
    20    12    20    1
    21    13    18   ar
    22    13    14   ar
    23    14    15   ar
    24    14    34    1
    25    15    16   ar
    26    15    35    1
    27    16    17   ar
    28    16    36    1
    29    17    18   ar
    30    17    37    1
    31    18    19    1
    32    20    38    1
    33    20    39    1
    34    21    28    1
    35    21    22    2
    36    22    23    1
    37    23    24    1
    38    23    27    2
    39    24    26    1
    40    24    25    1
    41    24    40    1
    42    25    26    1
    43    25    41    1
    44    25    42    1
    45    26    43    1
    46    26    44    1
    47    27    28    1
@<TRIPOS>SUBSTRUCTURE
     1 ZINC000918875053        1 TEMP              0 ****  ****    0 ROOT


##########                                Name:    ZINC000501032137
##########                DOCK_Rotatable_Bonds:                  10
##########                         Heavy_Atoms:                  25
##########                    Molecular_Weight:             407.307
##########                DOCK_Rotatable_Bonds:                  10
##########                       Formal_Charge:           0.0099998
##########                     HBond_Acceptors:                   5
##########                        HBond_Donors:                   1
##########                         Heavy_Atoms:                  25
##########                          Grid_Score:          -29.863317
##########                     Grid_vdw_energy:          -30.179903
##########                      Grid_es_energy:            0.316586
##########           Internal_energy_repulsive:            8.664906

@<TRIPOS>MOLECULE
ZINC000501032137
 48 50 1 0 0
SMALL
USER_CHARGES


@<TRIPOS>ATOM
      1 C1         -6.7624    0.6711   59.4211 C.3     1  ZINC000501032137   -0.1500
      2 C2         -6.6254    2.1874   59.2694 C.3     1  ZINC000501032137   -0.1200
      3 C3         -7.2174    2.6212   57.9269 C.3     1  ZINC000501032137    0.0600
      4 O4         -6.2970    2.3123   56.8784 O.3     1  ZINC000501032137   -0.3800
      5 C5         -6.2869    3.2660   55.8143 C.3     1  ZINC000501032137    0.0500
      6 C6         -6.3909    2.5356   54.4738 C.3     1  ZINC000501032137    0.1600
      7 H7         -5.6674    1.7208   54.4470 H       1  ZINC000501032137    0.1000
      8 C8         -6.0986    3.5150   53.3354 C.3     1  ZINC000501032137   -0.0900
      9 C9         -4.7615    3.1877   52.7221 C.ar    1  ZINC000501032137   -0.0600
     10 C10        -4.6965    2.4119   51.5800 C.ar    1  ZINC000501032137   -0.0900
     11 C11        -3.4700    2.1113   51.0169 C.ar    1  ZINC000501032137   -0.1100
     12 C12        -2.3086    2.5864   51.5958 C.ar    1  ZINC000501032137   -0.0900
     13 C13        -2.3732    3.3629   52.7389 C.ar    1  ZINC000501032137   -0.0800
     14 Br14       -0.7843    4.0133   53.5316 Br      1  ZINC000501032137   -0.0600
     15 C15        -3.6006    3.6681   53.2986 C.ar    1  ZINC000501032137   -0.0800
     16 N16        -7.7428    1.9936   54.3166 N.am    1  ZINC000501032137   -0.7100
     17 C17        -7.9352    0.8520   53.6265 C.2     1  ZINC000501032137    0.6100
     18 O18        -6.9863    0.2711   53.1357 O.2     1  ZINC000501032137   -0.5200
     19 C19        -9.2957    0.3075   53.4669 C.2     1  ZINC000501032137   -0.0800
     20 C20       -10.4541    1.0213   53.4387 C.2     1  ZINC000501032137    0.0800
     21 C21       -10.5894    2.5169   53.5651 C.3     1  ZINC000501032137   -0.0800
     22 C22       -10.3212    3.3586   52.3159 C.3     1  ZINC000501032137   -0.1700
     23 C23       -11.7522    3.1858   52.8292 C.3     1  ZINC000501032137   -0.1500
     24 O24       -11.4534    0.1395   53.2766 O.3     1  ZINC000501032137   -0.2000
     25 C25       -10.9214   -1.0889   53.2065 C.2     1  ZINC000501032137    0.1800
     26 N26        -9.6293   -1.0027   53.3140 N.2     1  ZINC000501032137   -0.4600
     27 H27        -7.8163    0.3959   59.3829 H       1  ZINC000501032137    0.0600
     28 H28        -6.2277    0.1752   58.6110 H       1  ZINC000501032137    0.0600
     29 H29        -6.3405    0.3620   60.3775 H       1  ZINC000501032137    0.0600
     30 H30        -7.1600    2.6833   60.0796 H       1  ZINC000501032137    0.0700
     31 H31        -5.5714    2.4627   59.3076 H       1  ZINC000501032137    0.0700
     32 H32        -8.1547    2.0921   57.7553 H       1  ZINC000501032137    0.0500
     33 H33        -7.4038    3.6951   57.9421 H       1  ZINC000501032137    0.0500
     34 H34        -7.1335    3.9435   55.9254 H       1  ZINC000501032137    0.0700
     35 H35        -5.3586    3.8363   55.8462 H       1  ZINC000501032137    0.0600
     36 H36        -6.8764    3.4324   52.5763 H       1  ZINC000501032137    0.0900
     37 H37        -6.0796    4.5321   53.7269 H       1  ZINC000501032137    0.0800
     38 H38        -5.6040    2.0402   51.1275 H       1  ZINC000501032137    0.1200
     39 H39        -3.4197    1.5048   50.1246 H       1  ZINC000501032137    0.1300
     40 H40        -1.3506    2.3513   51.1560 H       1  ZINC000501032137    0.1300
     41 H41        -3.6515    4.2746   54.1909 H       1  ZINC000501032137    0.1200
     42 H42        -8.4996    2.4563   54.7093 H       1  ZINC000501032137    0.4100
     43 H43       -10.2952    2.9359   54.5274 H       1  ZINC000501032137    0.1500
     44 H44        -9.8502    4.3315   52.4562 H       1  ZINC000501032137    0.1100
     45 H45       -10.0470    2.8307   51.4027 H       1  ZINC000501032137    0.1000
     46 H46       -12.4193    2.5441   52.2537 H       1  ZINC000501032137    0.1000
     47 H47       -12.2226    4.0451   53.3072 H       1  ZINC000501032137    0.1100
     48 H48       -11.4784   -2.0052   53.0776 H       1  ZINC000501032137    0.2500
@<TRIPOS>BOND
     1     1     2    1
     2     1    27    1
     3     1    28    1
     4     1    29    1
     5     2     3    1
     6     2    30    1
     7     2    31    1
     8     3     4    1
     9     3    32    1
    10     3    33    1
    11     4     5    1
    12     5     6    1
    13     5    34    1
    14     5    35    1
    15     6     7    1
    16     6     8    1
    17     6    16    1
    18     8     9    1
    19     8    36    1
    20     8    37    1
    21     9    15   ar
    22     9    10   ar
    23    10    11   ar
    24    10    38    1
    25    11    12   ar
    26    11    39    1
    27    12    13   ar
    28    12    40    1
    29    13    14    1
    30    13    15   ar
    31    15    41    1
    32    16    17   am
    33    16    42    1
    34    17    18    2
    35    17    19    1
    36    19    26    1
    37    19    20    2
    38    20    21    1
    39    20    24    1
    40    21    23    1
    41    21    22    1
    42    21    43    1
    43    22    23    1
    44    22    44    1
    45    22    45    1
    46    23    46    1
    47    23    47    1
    48    24    25    1
    49    25    26    2
    50    25    48    1
@<TRIPOS>SUBSTRUCTURE
     1 ZINC000501032137        1 TEMP              0 ****  ****    0 ROOT


##########                                Name:    ZINC001058079801
##########                DOCK_Rotatable_Bonds:                   7
##########                         Heavy_Atoms:                  24
##########                    Molecular_Weight:             349.457
##########                DOCK_Rotatable_Bonds:                   7
##########                       Formal_Charge:           0.0200001
##########                     HBond_Acceptors:                   8
##########                        HBond_Donors:                   0
##########                         Heavy_Atoms:                  24
##########                          Grid_Score:          -29.852657
##########                     Grid_vdw_energy:          -30.345716
##########                      Grid_es_energy:            0.493060
##########           Internal_energy_repulsive:           14.942359

@<TRIPOS>MOLECULE
ZINC001058079801
 47 49 1 0 0
SMALL
USER_CHARGES


@<TRIPOS>ATOM
      1 C1        -16.6164   -1.4874   57.7934 C.3     1  ZINC001058079801   -0.1500
      2 C2        -15.1712   -1.4179   57.2956 C.3     1  ZINC001058079801   -0.1200
      3 C3        -14.4772   -2.7563   57.5563 C.3     1  ZINC001058079801   -0.0300
      4 C4        -13.0617   -2.6966   57.0426 C.2     1  ZINC001058079801    0.2900
      5 N5        -12.2008   -3.6271   57.3367 N.2     1  ZINC001058079801   -0.4800
      6 S6        -10.7537   -3.1771   56.5676 S.3     1  ZINC001058079801    0.1900
      7 C7        -11.4044   -1.7362   55.8827 C.2     1  ZINC001058079801    0.2700
      8 N8        -10.7519   -0.8139   55.0846 N.3     1  ZINC001058079801   -0.4300
      9 C9         -9.8151   -1.4788   54.1699 C.3     1  ZINC001058079801    0.0700
     10 C10        -9.2217   -0.4478   53.2072 C.3     1  ZINC001058079801   -0.1300
     11 C11        -8.4972    0.6358   54.0108 C.3     1  ZINC001058079801    0.1300
     12 N12        -7.9768    1.6567   53.0979 N.am    1  ZINC001058079801   -0.6100
     13 C13        -8.8332    2.7682   52.6772 C.3     1  ZINC001058079801    0.0700
     14 C14        -6.7100    1.5732   52.6453 C.2     1  ZINC001058079801    0.5200
     15 O15        -6.0005    0.6538   52.9949 O.2     1  ZINC001058079801   -0.5300
     16 C16        -6.1753    2.6223   51.7049 C.3     1  ZINC001058079801   -0.0600
     17 C17        -4.6752    2.6921   51.8308 C.2     1  ZINC001058079801   -0.1900
     18 C18        -3.9453    3.4083   52.7189 C.2     1  ZINC001058079801   -0.0400
     19 O19        -2.6581    3.1527   52.4459 O.3     1  ZINC001058079801    0.1000
     20 N20        -2.5443    2.3847   51.5188 N.2     1  ZINC001058079801   -0.3600
     21 C21        -3.7041    2.0204   51.0532 C.2     1  ZINC001058079801    0.0000
     22 C22        -9.4832    1.2794   54.9896 C.3     1  ZINC001058079801   -0.1200
     23 C23       -10.0692    0.1982   55.9006 C.3     1  ZINC001058079801    0.0400
     24 N24       -12.6591   -1.7070   56.2795 N.2     1  ZINC001058079801   -0.5300
     25 H25       -17.1108   -0.5339   57.6079 H       1  ZINC001058079801    0.0600
     26 H26       -17.1452   -2.2801   57.2642 H       1  ZINC001058079801    0.0600
     27 H27       -16.6225   -1.6978   58.8629 H       1  ZINC001058079801    0.0600
     28 H28       -15.1651   -1.2076   56.2261 H       1  ZINC001058079801    0.0700
     29 H29       -14.6424   -0.6253   57.8249 H       1  ZINC001058079801    0.0700
     30 H30       -14.4668   -2.9578   58.6274 H       1  ZINC001058079801    0.1000
     31 H31       -15.0169   -3.5517   57.0421 H       1  ZINC001058079801    0.0900
     32 H32        -9.0136   -1.9425   54.7449 H       1  ZINC001058079801    0.0600
     33 H33       -10.3438   -2.2440   53.6017 H       1  ZINC001058079801    0.1000
     34 H34        -8.5146   -0.9388   52.5387 H       1  ZINC001058079801    0.0800
     35 H35       -10.0212    0.0065   52.6222 H       1  ZINC001058079801    0.0800
     36 H36        -7.6722    0.1880   54.5649 H       1  ZINC001058079801    0.1000
     37 H37        -8.7222    3.5973   53.3760 H       1  ZINC001058079801    0.0600
     38 H38        -8.5420    3.0934   51.6784 H       1  ZINC001058079801    0.0800
     39 H39        -9.8729    2.4410   52.6639 H       1  ZINC001058079801    0.0800
     40 H40        -6.4422    2.3620   50.6806 H       1  ZINC001058079801    0.1100
     41 H41        -6.6066    3.5908   51.9577 H       1  ZINC001058079801    0.1100
     42 H42        -4.3252    4.0572   53.4941 H       1  ZINC001058079801    0.2200
     43 H43        -3.8879    1.3444   50.2312 H       1  ZINC001058079801    0.1900
     44 H44        -8.9631    2.0222   55.5945 H       1  ZINC001058079801    0.0900
     45 H45       -10.2870    1.7608   54.4327 H       1  ZINC001058079801    0.0800
     46 H46       -10.7824    0.6511   56.5894 H       1  ZINC001058079801    0.1000
     47 H47        -9.2663   -0.2733   56.4674 H       1  ZINC001058079801    0.0700
@<TRIPOS>BOND
     1     1     2    1
     2     1    25    1
     3     1    26    1
     4     1    27    1
     5     2     3    1
     6     2    28    1
     7     2    29    1
     8     3     4    1
     9     3    30    1
    10     3    31    1
    11     4    24    1
    12     4     5    2
    13     5     6    1
    14     6     7    1
    15     7     8    1
    16     7    24    2
    17     8    23    1
    18     8     9    1
    19     9    10    1
    20     9    32    1
    21     9    33    1
    22    10    11    1
    23    10    34    1
    24    10    35    1
    25    11    12    1
    26    11    22    1
    27    11    36    1
    28    12    13    1
    29    12    14   am
    30    13    37    1
    31    13    38    1
    32    13    39    1
    33    14    15    2
    34    14    16    1
    35    16    17    1
    36    16    40    1
    37    16    41    1
    38    17    21    1
    39    17    18    2
    40    18    19    1
    41    18    42    1
    42    19    20    1
    43    20    21    2
    44    21    43    1
    45    22    23    1
    46    22    44    1
    47    22    45    1
    48    23    46    1
    49    23    47    1
@<TRIPOS>SUBSTRUCTURE
     1 ZINC001058079801        1 TEMP              0 ****  ****    0 ROOT


##########                                Name:    ZINC000809503567
##########                DOCK_Rotatable_Bonds:                   9
##########                         Heavy_Atoms:                  26
##########                    Molecular_Weight:             353.378
##########                DOCK_Rotatable_Bonds:                   9
##########                       Formal_Charge:          -0.0200002
##########                     HBond_Acceptors:                   7
##########                        HBond_Donors:                   1
##########                         Heavy_Atoms:                  26
##########                          Grid_Score:          -29.846708
##########                     Grid_vdw_energy:          -29.433485
##########                      Grid_es_energy:           -0.413223
##########           Internal_energy_repulsive:           14.855330

@<TRIPOS>MOLECULE
ZINC000809503567
 45 46 1 0 0
SMALL
USER_CHARGES


@<TRIPOS>ATOM
      1 C1         -0.9239    3.7895   54.5983 C.3     1  ZINC000809503567    0.0200
      2 O2         -1.3557    3.9278   53.2431 O.3     1  ZINC000809503567   -0.3100
      3 C3         -2.6159    3.5163   52.9530 C.ar    1  ZINC000809503567    0.1900
      4 C4         -3.6869    3.9691   53.7072 C.ar    1  ZINC000809503567   -0.2100
      5 C5         -4.9693    3.5494   53.4109 C.ar    1  ZINC000809503567   -0.0200
      6 C6         -5.1954    2.6748   52.3614 C.ar    1  ZINC000809503567   -0.1500
      7 C7         -6.5992    2.2244   52.0492 C.3     1  ZINC000809503567    0.1700
      8 N8         -7.0755    1.3373   53.1133 N.am    1  ZINC000809503567   -0.7000
      9 C9         -8.2102    1.6316   53.7784 C.2     1  ZINC000809503567    0.5100
     10 O10        -8.8366    2.6319   53.4967 O.2     1  ZINC000809503567   -0.4900
     11 C11        -8.6970    0.7256   54.8627 C.2     1  ZINC000809503567    0.5100
     12 O12        -8.4737    0.9954   56.0246 O.2     1  ZINC000809503567   -0.5000
     13 N13        -9.3841   -0.3909   54.5502 N.am    1  ZINC000809503567   -0.4600
     14 C14        -9.8598   -1.2799   55.6130 C.3     1  ZINC000809503567    0.0800
     15 O15        -9.6461   -0.7048   53.1945 O.3     1  ZINC000809503567   -0.1100
     16 C16       -10.9548   -1.2294   52.9617 C.3     1  ZINC000809503567    0.0800
     17 C17       -11.8602   -0.1254   52.4797 C.ar    1  ZINC000809503567   -0.0900
     18 C18       -12.7271   -0.3523   51.4272 C.ar    1  ZINC000809503567   -0.1000
     19 C19       -13.5576    0.6605   50.9850 C.ar    1  ZINC000809503567   -0.1300
     20 C20       -13.5216    1.9001   51.5957 C.ar    1  ZINC000809503567   -0.1100
     21 C21       -12.6553    2.1268   52.6489 C.ar    1  ZINC000809503567   -0.1300
     22 C22       -11.8278    1.1127   53.0938 C.ar    1  ZINC000809503567   -0.0800
     23 C23        -4.1418    2.2146   51.6004 C.ar    1  ZINC000809503567   -0.0100
     24 C24        -2.8408    2.6356   51.8855 C.ar    1  ZINC000809503567   -0.0600
     25 C25        -1.7419    2.1616   51.0992 C.1     1  ZINC000809503567    0.2600
     26 N26        -0.8702    1.7855   50.4754 N.1     1  ZINC000809503567   -0.4100
     27 H27        -0.9625    2.7390   54.8865 H       1  ZINC000809503567    0.0600
     28 H28         0.0988    4.1548   54.6929 H       1  ZINC000809503567    0.1100
     29 H29        -1.5784    4.3692   55.2491 H       1  ZINC000809503567    0.0600
     30 H30        -3.5188    4.6507   54.5278 H       1  ZINC000809503567    0.1400
     31 H31        -5.8006    3.9052   54.0016 H       1  ZINC000809503567    0.1400
     32 H32        -7.2530    3.0939   51.9811 H       1  ZINC000809503567    0.0900
     33 H33        -6.6063    1.6892   51.0996 H       1  ZINC000809503567    0.0900
     34 H34        -6.5742    0.5383   53.3393 H       1  ZINC000809503567    0.4100
     35 H35       -10.8580   -0.9723   55.9245 H       1  ZINC000809503567    0.0800
     36 H36        -9.8947   -2.3041   55.2415 H       1  ZINC000809503567    0.0800
     37 H37        -9.1806   -1.2250   56.4638 H       1  ZINC000809503567    0.0900
     38 H38       -10.9029   -2.0129   52.2056 H       1  ZINC000809503567    0.0700
     39 H39       -11.3500   -1.6447   53.8887 H       1  ZINC000809503567    0.0600
     40 H40       -12.7553   -1.3208   50.9501 H       1  ZINC000809503567    0.1200
     41 H41       -14.2344    0.4833   50.1623 H       1  ZINC000809503567    0.1200
     42 H42       -14.1698    2.6915   51.2499 H       1  ZINC000809503567    0.1200
     43 H43       -12.6268    3.0954   53.1258 H       1  ZINC000809503567    0.1200
     44 H44       -11.1510    1.2898   53.9166 H       1  ZINC000809503567    0.1300
     45 H45        -4.3225    1.5326   50.7828 H       1  ZINC000809503567    0.1400
@<TRIPOS>BOND
     1     1     2    1
     2     1    27    1
     3     1    28    1
     4     1    29    1
     5     2     3    1
     6     3    24   ar
     7     3     4   ar
     8     4     5   ar
     9     4    30    1
    10     5     6   ar
    11     5    31    1
    12     6     7    1
    13     6    23   ar
    14     7     8    1
    15     7    32    1
    16     7    33    1
    17     8     9   am
    18     8    34    1
    19     9    10    2
    20     9    11    1
    21    11    12    2
    22    11    13   am
    23    13    14    1
    24    13    15    1
    25    14    35    1
    26    14    36    1
    27    14    37    1
    28    15    16    1
    29    16    17    1
    30    16    38    1
    31    16    39    1
    32    17    22   ar
    33    17    18   ar
    34    18    19   ar
    35    18    40    1
    36    19    20   ar
    37    19    41    1
    38    20    21   ar
    39    20    42    1
    40    21    22   ar
    41    21    43    1
    42    22    44    1
    43    23    24   ar
    44    23    45    1
    45    24    25    1
    46    25    26    3
@<TRIPOS>SUBSTRUCTURE
     1 ZINC000809503567        1 TEMP              0 ****  ****    0 ROOT


##########                                Name:    ZINC000457806032
##########                DOCK_Rotatable_Bonds:                   8
##########                         Heavy_Atoms:                  24
##########                    Molecular_Weight:             387.911
##########                DOCK_Rotatable_Bonds:                   8
##########                       Formal_Charge:        -1.49012e-07
##########                     HBond_Acceptors:                   9
##########                        HBond_Donors:                   2
##########                         Heavy_Atoms:                  24
##########                          Grid_Score:          -29.824749
##########                     Grid_vdw_energy:          -29.663980
##########                      Grid_es_energy:           -0.160768
##########           Internal_energy_repulsive:           13.101035

@<TRIPOS>MOLECULE
ZINC000457806032
 42 43 1 0 0
SMALL
USER_CHARGES


@<TRIPOS>ATOM
      1 C1          4.7325   -0.4196   47.6593 C.3     1  ZINC000457806032    0.0800
      2 N2          4.4552   -1.5817   48.5072 N.am    1  ZINC000457806032   -1.0100
      3 C3          3.8697   -2.7911   47.9236 C.3     1  ZINC000457806032    0.0900
      4 S4          4.8038   -1.5283   50.1252 S.o2    1  ZINC000457806032    2.7900
      5 O5          4.2870   -2.7269   50.6868 O.2     1  ZINC000457806032   -0.9700
      6 O6          6.1686   -1.1465   50.2292 O.2     1  ZINC000457806032   -0.9700
      7 N7          3.9204   -0.2880   50.7762 N.am    1  ZINC000457806032   -1.1300
      8 C8          4.1121    1.0811   50.2913 C.3     1  ZINC000457806032    0.1100
      9 C9          2.8610    1.5347   49.5365 C.3     1  ZINC000457806032    0.1100
     10 N10         1.8925    2.0896   50.4853 N.am    1  ZINC000457806032   -0.7300
     11 C11         0.5745    1.8707   50.3085 C.2     1  ZINC000457806032    0.5800
     12 O12         0.1891    1.2112   49.3619 O.2     1  ZINC000457806032   -0.5300
     13 C13        -0.3990    2.4300   51.2612 C.2     1  ZINC000457806032   -0.1500
     14 C14        -0.0342    3.1579   52.3534 C.2     1  ZINC000457806032   -0.2200
     15 S15        -1.4111    3.6468   53.2340 S.3     1  ZINC000457806032    0.2400
     16 C16        -2.4904    2.8498   52.0998 C.2     1  ZINC000457806032   -0.1700
     17 C17        -3.9656    2.8299   52.2028 C.ar    1  ZINC000457806032   -0.0100
     18 C18        -4.6778    1.6868   51.8379 C.ar    1  ZINC000457806032   -0.0900
     19 C19        -6.0538    1.6741   51.9360 C.ar    1  ZINC000457806032   -0.1000
     20 C20        -6.7281    2.7929   52.3952 C.ar    1  ZINC000457806032   -0.0300
     21 Cl21       -8.4598    2.7697   52.5155 Cl      1  ZINC000457806032   -0.0600
     22 C22        -6.0267    3.9298   52.7592 C.ar    1  ZINC000457806032   -0.1000
     23 C23        -4.6502    3.9522   52.6707 C.ar    1  ZINC000457806032   -0.1000
     24 C24        -1.7783    2.2666   51.1225 C.2     1  ZINC000457806032   -0.0700
     25 H25         3.8594    0.2326   47.6400 H       1  ZINC000457806032    0.0600
     26 H26         5.5858    0.1275   48.0603 H       1  ZINC000457806032    0.0800
     27 H27         4.9587   -0.7541   46.6469 H       1  ZINC000457806032    0.0800
     28 H28         4.6663   -3.4550   47.5880 H       1  ZINC000457806032    0.0600
     29 H29         3.2643   -3.3001   48.6737 H       1  ZINC000457806032    0.0700
     30 H30         3.2426   -2.5181   47.0749 H       1  ZINC000457806032    0.0700
     31 H31         3.2759   -0.4681   51.4784 H       1  ZINC000457806032    0.4200
     32 H32         4.2864    1.7452   51.1379 H       1  ZINC000457806032    0.0700
     33 H33         4.9718    1.1125   49.6219 H       1  ZINC000457806032    0.0900
     34 H34         3.1333    2.2977   48.8073 H       1  ZINC000457806032    0.0800
     35 H35         2.4180    0.6820   49.0219 H       1  ZINC000457806032    0.0800
     36 H36         2.1999    2.6146   51.2409 H       1  ZINC000457806032    0.4000
     37 H37         0.9846    3.3927   52.6241 H       1  ZINC000457806032    0.1700
     38 H38        -4.1529    0.8138   51.4789 H       1  ZINC000457806032    0.1400
     39 H39        -6.6061    0.7899   51.6539 H       1  ZINC000457806032    0.1400
     40 H40        -6.5581    4.7995   53.1166 H       1  ZINC000457806032    0.1400
     41 H41        -4.1041    4.8395   52.9552 H       1  ZINC000457806032    0.1300
     42 H42        -2.2296    1.7161   50.3103 H       1  ZINC000457806032    0.1600
@<TRIPOS>BOND
     1     1     2    1
     2     1    25    1
     3     1    26    1
     4     1    27    1
     5     2     3    1
     6     2     4   am
     7     3    28    1
     8     3    29    1
     9     3    30    1
    10     4     5    2
    11     4     6    2
    12     4     7   am
    13     7     8    1
    14     7    31    1
    15     8     9    1
    16     8    32    1
    17     8    33    1
    18     9    10    1
    19     9    34    1
    20     9    35    1
    21    10    11   am
    22    10    36    1
    23    11    12    2
    24    11    13    1
    25    13    24    1
    26    13    14    2
    27    14    15    1
    28    14    37    1
    29    15    16    1
    30    16    17    1
    31    16    24    2
    32    17    23   ar
    33    17    18   ar
    34    18    19   ar
    35    18    38    1
    36    19    20   ar
    37    19    39    1
    38    20    21    1
    39    20    22   ar
    40    22    23   ar
    41    22    40    1
    42    23    41    1
    43    24    42    1
@<TRIPOS>SUBSTRUCTURE
     1 ZINC000457806032        1 TEMP              0 ****  ****    0 ROOT


##########                                Name:    ZINC000509132103
##########                DOCK_Rotatable_Bonds:                   7
##########                         Heavy_Atoms:                  29
##########                    Molecular_Weight:              405.52
##########                DOCK_Rotatable_Bonds:                   7
##########                       Formal_Charge:          -0.0499998
##########                     HBond_Acceptors:                   6
##########                        HBond_Donors:                   0
##########                         Heavy_Atoms:                  29
##########                          Grid_Score:          -29.762682
##########                     Grid_vdw_energy:          -29.057949
##########                      Grid_es_energy:           -0.704734
##########           Internal_energy_repulsive:           16.616596

@<TRIPOS>MOLECULE
ZINC000509132103
 52 55 1 0 0
SMALL
USER_CHARGES


@<TRIPOS>ATOM
      1 C1         -4.9458    0.8835   67.1678 C.3     1  ZINC000509132103    0.0300
      2 O2         -6.3012    0.4361   67.0982 O.3     1  ZINC000509132103   -0.3000
      3 C3         -6.8792    0.4107   65.8708 C.ar    1  ZINC000509132103    0.2700
      4 C4         -6.1551    0.8050   64.7489 C.ar    1  ZINC000509132103   -0.1300
      5 C5         -6.7908    0.7610   63.5172 C.ar    1  ZINC000509132103   -0.0700
      6 C6         -8.1078    0.3274   63.4786 C.ar    1  ZINC000509132103    0.0500
      7 C7         -8.8415    0.2615   62.1640 C.3     1  ZINC000509132103   -0.0500
      8 S8         -9.2732    1.9397   61.6275 S.3     1  ZINC000509132103   -0.1500
      9 C9        -10.1595    1.6553   60.0706 C.3     1  ZINC000509132103   -0.1300
     10 C10       -11.5290    1.1002   60.3664 C.2     1  ZINC000509132103    0.5400
     11 O11       -11.9812    1.1680   61.4897 O.2     1  ZINC000509132103   -0.5100
     12 N12       -12.2513    0.5285   59.3825 N.am    1  ZINC000509132103   -0.6100
     13 C13       -13.5871   -0.0211   59.6377 C.3     1  ZINC000509132103    0.1500
     14 C14       -13.7197   -1.3654   58.9673 C.ar    1  ZINC000509132103   -0.1000
     15 C15       -14.8190   -2.1468   59.2949 C.ar    1  ZINC000509132103   -0.1100
     16 C16       -15.0006   -3.3820   58.7069 C.ar    1  ZINC000509132103   -0.1200
     17 C17       -14.0812   -3.8433   57.7837 C.ar    1  ZINC000509132103   -0.1200
     18 C18       -12.9861   -3.0693   57.4602 C.ar    1  ZINC000509132103   -0.1100
     19 C19       -12.7974   -1.8280   58.0551 C.ar    1  ZINC000509132103   -0.0600
     20 C20       -11.5652   -1.0507   57.6733 C.3     1  ZINC000509132103   -0.0200
     21 H21       -10.7082   -1.4477   58.2173 H       1  ZINC000509132103    0.1000
     22 C22       -11.3246   -1.1989   56.1930 C.ar    1  ZINC000509132103   -0.0800
     23 C23       -12.3497   -0.9547   55.2984 C.ar    1  ZINC000509132103   -0.1100
     24 C24       -12.1289   -1.0905   53.9405 C.ar    1  ZINC000509132103   -0.1200
     25 C25       -10.8830   -1.4702   53.4774 C.ar    1  ZINC000509132103   -0.1200
     26 C26        -9.8578   -1.7136   54.3721 C.ar    1  ZINC000509132103   -0.1200
     27 C27       -10.0773   -1.5735   55.7297 C.ar    1  ZINC000509132103   -0.1100
     28 C28       -11.7336    0.4361   58.0073 C.3     1  ZINC000509132103    0.1200
     29 N29        -8.7174   -0.0275   64.5925 N.ar    1  ZINC000509132103   -0.1900
     30 N30        -8.1320    0.0060   65.7343 N.ar    1  ZINC000509132103   -0.3000
     31 H31        -4.8805    1.9047   66.7922 H       1  ZINC000509132103    0.0600
     32 H32        -4.6064    0.8549   68.2033 H       1  ZINC000509132103    0.1000
     33 H33        -4.3166    0.2323   66.5611 H       1  ZINC000509132103    0.0600
     34 H34        -5.1303    1.1350   64.8352 H       1  ZINC000509132103    0.1600
     35 H35        -6.2758    1.0559   62.6148 H       1  ZINC000509132103    0.1600
     36 H36        -8.2032   -0.2065   61.4146 H       1  ZINC000509132103    0.1100
     37 H37        -9.7513   -0.3266   62.2847 H       1  ZINC000509132103    0.1000
     38 H38       -10.2579    2.5973   59.5312 H       1  ZINC000509132103    0.1100
     39 H39        -9.6030    0.9437   59.4605 H       1  ZINC000509132103    0.1100
     40 H40       -13.7331   -0.1355   60.7119 H       1  ZINC000509132103    0.1000
     41 H41       -14.3410    0.6585   59.2403 H       1  ZINC000509132103    0.0900
     42 H42       -15.5375   -1.7856   60.0157 H       1  ZINC000509132103    0.1200
     43 H43       -15.8577   -3.9855   58.9667 H       1  ZINC000509132103    0.1300
     44 H44       -14.2194   -4.8075   57.3171 H       1  ZINC000509132103    0.1200
     45 H45       -12.2689   -3.4314   56.7385 H       1  ZINC000509132103    0.1200
     46 H46       -13.3231   -0.6581   55.6602 H       1  ZINC000509132103    0.1200
     47 H47       -12.9300   -0.9005   53.2415 H       1  ZINC000509132103    0.1200
     48 H48       -10.7108   -1.5771   52.4166 H       1  ZINC000509132103    0.1200
     49 H49        -8.8844   -2.0105   54.0103 H       1  ZINC000509132103    0.1200
     50 H50        -9.2762   -1.7636   56.4287 H       1  ZINC000509132103    0.1200
     51 H51       -12.4373    0.8930   57.3115 H       1  ZINC000509132103    0.0800
     52 H52       -10.7694    0.9402   57.9420 H       1  ZINC000509132103    0.1000
@<TRIPOS>BOND
     1     1     2    1
     2     1    31    1
     3     1    32    1
     4     1    33    1
     5     2     3    1
     6     3    30   ar
     7     3     4   ar
     8     4     5   ar
     9     4    34    1
    10     5     6   ar
    11     5    35    1
    12     6     7    1
    13     6    29   ar
    14     7     8    1
    15     7    36    1
    16     7    37    1
    17     8     9    1
    18     9    10    1
    19     9    38    1
    20     9    39    1
    21    10    11    2
    22    10    12   am
    23    12    28    1
    24    12    13    1
    25    13    14    1
    26    13    40    1
    27    13    41    1
    28    14    19   ar
    29    14    15   ar
    30    15    16   ar
    31    15    42    1
    32    16    17   ar
    33    16    43    1
    34    17    18   ar
    35    17    44    1
    36    18    19   ar
    37    18    45    1
    38    19    20    1
    39    20    21    1
    40    20    22    1
    41    20    28    1
    42    22    27   ar
    43    22    23   ar
    44    23    24   ar
    45    23    46    1
    46    24    25   ar
    47    24    47    1
    48    25    26   ar
    49    25    48    1
    50    26    27   ar
    51    26    49    1
    52    27    50    1
    53    28    51    1
    54    28    52    1
    55    29    30   ar
@<TRIPOS>SUBSTRUCTURE
     1 ZINC000509132103        1 TEMP              0 ****  ****    0 ROOT


##########                                Name:    ZINC001181473921
##########                DOCK_Rotatable_Bonds:                   9
##########                         Heavy_Atoms:                  24
##########                    Molecular_Weight:             357.431
##########                DOCK_Rotatable_Bonds:                   9
##########                       Formal_Charge:        -5.96046e-08
##########                     HBond_Acceptors:                   9
##########                        HBond_Donors:                   4
##########                         Heavy_Atoms:                  24
##########                          Grid_Score:          -29.741272
##########                     Grid_vdw_energy:          -27.947622
##########                      Grid_es_energy:           -1.793650
##########           Internal_energy_repulsive:           17.972443

@<TRIPOS>MOLECULE
ZINC001181473921
 47 48 1 0 0
SMALL
USER_CHARGES


@<TRIPOS>ATOM
      1 C1         -4.7008    4.2718   54.3434 C.3     1  ZINC001181473921   -0.1300
      2 C2         -3.6709    3.6907   53.4093 C.2     1  ZINC001181473921    0.1900
      3 C3         -2.3608    3.9338   53.6279 C.2     1  ZINC001181473921   -0.2400
      4 C4         -1.3932    3.3927   52.7580 C.2     1  ZINC001181473921    0.2500
      5 O5         -0.0752    3.6271   52.9642 O.3     1  ZINC001181473921   -0.4600
      6 C6         -1.8100    2.6184   51.6911 C.2     1  ZINC001181473921   -0.3700
      7 C7         -3.1792    2.3945   51.5057 C.2     1  ZINC001181473921    0.5300
      8 O8         -3.5635    1.7125   50.5683 O.2     1  ZINC001181473921   -0.5500
      9 N9         -4.0726    2.9245   52.3614 N.am    1  ZINC001181473921   -0.5000
     10 C10        -5.5022    2.6802   52.1536 C.3     1  ZINC001181473921    0.1000
     11 C11        -5.8019    1.1951   52.3663 C.3     1  ZINC001181473921   -0.1600
     12 C12        -7.0076    1.0486   53.2586 C.2     1  ZINC001181473921    0.5200
     13 O13        -7.1463    1.7808   54.2154 O.2     1  ZINC001181473921   -0.5300
     14 N14        -7.9315    0.1040   52.9934 N.am    1  ZINC001181473921   -0.7200
     15 C15        -9.1026   -0.0395   53.8618 C.3     1  ZINC001181473921    0.1400
     16 H16        -8.8204    0.0680   54.9092 H       1  ZINC001181473921    0.1000
     17 C17        -9.8028   -1.3995   53.6188 C.3     1  ZINC001181473921   -0.1300
     18 C18       -11.2546   -1.1662   54.0852 C.3     1  ZINC001181473921   -0.1500
     19 C19       -11.5072    0.3490   53.9951 C.3     1  ZINC001181473921   -0.0800
     20 H20       -11.7501    0.7464   54.9806 H       1  ZINC001181473921    0.0900
     21 C21       -12.6513    0.6325   53.0195 C.3     1  ZINC001181473921   -0.6200
     22 S22       -13.5177    2.1434   53.5263 S.o2    1  ZINC001181473921    2.6100
     23 N23       -12.3429    3.3104   53.5350 N.am    1  ZINC001181473921   -1.2500
     24 O24       -14.4215    2.5635   52.5134 O.2     1  ZINC001181473921   -0.9600
     25 O25       -13.9296    2.0507   54.8831 O.2     1  ZINC001181473921   -0.9600
     26 C26       -10.1980    0.9870   53.4803 C.3     1  ZINC001181473921   -0.1200
     27 H27        -5.3268    3.4711   54.7373 H       1  ZINC001181473921    0.0900
     28 H28        -4.1989    4.7793   55.1672 H       1  ZINC001181473921    0.1000
     29 H29        -5.3215    4.9851   53.8015 H       1  ZINC001181473921    0.0900
     30 H30        -2.0554    4.5414   54.4669 H       1  ZINC001181473921    0.1500
     31 H31         0.4321    2.8388   53.2018 H       1  ZINC001181473921    0.4100
     32 H32        -1.0886    2.1923   51.0095 H       1  ZINC001181473921    0.1500
     33 H33        -6.0790    3.2726   52.8638 H       1  ZINC001181473921    0.1000
     34 H34        -5.7753    2.9642   51.1373 H       1  ZINC001181473921    0.1100
     35 H35        -6.0026    0.7234   51.4043 H       1  ZINC001181473921    0.1100
     36 H36        -4.9430    0.7144   52.8345 H       1  ZINC001181473921    0.1000
     37 H37        -7.8212   -0.4809   52.2274 H       1  ZINC001181473921    0.4000
     38 H38        -9.7791   -1.6571   52.5599 H       1  ZINC001181473921    0.0700
     39 H39        -9.3323   -2.1825   54.2135 H       1  ZINC001181473921    0.0800
     40 H40       -11.9466   -1.6995   53.4334 H       1  ZINC001181473921    0.0900
     41 H41       -11.3751   -1.5042   55.1145 H       1  ZINC001181473921    0.0800
     42 H42       -12.2483    0.7642   52.0153 H       1  ZINC001181473921    0.1400
     43 H43       -13.3487   -0.2052   53.0242 H       1  ZINC001181473921    0.1400
     44 H44       -11.8586    3.5172   52.7204 H       1  ZINC001181473921    0.4100
     45 H45       -12.1389    3.7873   54.3548 H       1  ZINC001181473921    0.4200
     46 H46       -10.0201    1.9429   53.9727 H       1  ZINC001181473921    0.0800
     47 H47       -10.2358    1.1153   52.3985 H       1  ZINC001181473921    0.0800
@<TRIPOS>BOND
     1     1     2    1
     2     1    27    1
     3     1    28    1
     4     1    29    1
     5     2     9    1
     6     2     3    2
     7     3     4    1
     8     3    30    1
     9     4     5    1
    10     4     6    2
    11     5    31    1
    12     6     7    1
    13     6    32    1
    14     7     8    2
    15     7     9   am
    16     9    10    1
    17    10    11    1
    18    10    33    1
    19    10    34    1
    20    11    12    1
    21    11    35    1
    22    11    36    1
    23    12    13    2
    24    12    14   am
    25    14    15    1
    26    14    37    1
    27    15    16    1
    28    15    26    1
    29    15    17    1
    30    17    18    1
    31    17    38    1
    32    17    39    1
    33    18    19    1
    34    18    40    1
    35    18    41    1
    36    19    20    1
    37    19    21    1
    38    19    26    1
    39    21    22    1
    40    21    42    1
    41    21    43    1
    42    22    23   am
    43    22    24    2
    44    22    25    2
    45    23    44    1
    46    23    45    1
    47    26    46    1
    48    26    47    1
@<TRIPOS>SUBSTRUCTURE
     1 ZINC001181473921        1 TEMP              0 ****  ****    0 ROOT


##########                                Name:    ZINC001065334255
##########                DOCK_Rotatable_Bonds:                   7
##########                         Heavy_Atoms:                  23
##########                    Molecular_Weight:             346.448
##########                DOCK_Rotatable_Bonds:                   7
##########                       Formal_Charge:        -5.81145e-07
##########                     HBond_Acceptors:                   8
##########                        HBond_Donors:                   1
##########                         Heavy_Atoms:                  23
##########                          Grid_Score:          -29.690500
##########                     Grid_vdw_energy:          -28.503286
##########                      Grid_es_energy:           -1.187213
##########           Internal_energy_repulsive:           18.891357

@<TRIPOS>MOLECULE
ZINC001065334255
 49 50 1 0 0
SMALL
USER_CHARGES


@<TRIPOS>ATOM
      1 C1         -7.5553    2.9650   63.9941 C.3     1  ZINC001065334255   -0.1500
      2 C2         -6.4637    1.9169   63.7692 C.3     1  ZINC001065334255   -0.0800
      3 C3         -5.6250    1.7732   65.0408 C.3     1  ZINC001065334255   -0.1500
      4 C4         -7.1099    0.5721   63.4298 C.3     1  ZINC001065334255   -0.1400
      5 C5         -7.8989    0.7020   62.1526 C.2     1  ZINC001065334255    0.5100
      6 O6         -8.9746    0.1519   62.0456 O.2     1  ZINC001065334255   -0.5300
      7 N7         -7.4094    1.4295   61.1290 N.am    1  ZINC001065334255   -0.7300
      8 C8         -8.1773    1.5572   59.8879 C.3     1  ZINC001065334255    0.1300
      9 C9         -7.2181    1.7621   58.7136 C.3     1  ZINC001065334255    0.0700
     10 H10        -6.6467    0.8490   58.5467 H       1  ZINC001065334255    0.0700
     11 C11        -8.0191    2.1027   57.4518 C.3     1  ZINC001065334255    0.0800
     12 N12        -7.0731    2.4773   56.3886 N.am    1  ZINC001065334255   -0.6100
     13 C13        -7.1427    1.9118   55.1672 C.2     1  ZINC001065334255    0.5400
     14 O14        -7.9938    1.0805   54.9314 O.2     1  ZINC001065334255   -0.5200
     15 C15        -6.1630    2.3123   54.0945 C.3     1  ZINC001065334255   -0.1100
     16 H16        -5.1591    2.3822   54.5134 H       1  ZINC001065334255    0.1200
     17 C17        -6.5741    3.6632   53.4831 C.3     1  ZINC001065334255   -0.1000
     18 C18        -5.7743    3.8814   52.1833 C.3     1  ZINC001065334255   -0.5900
     19 S19        -5.4099    2.2005   51.5606 S.o2    1  ZINC001065334255    2.3900
     20 O20        -6.1456    1.9707   50.3669 O.2     1  ZINC001065334255   -0.9300
     21 O21        -4.0053    1.9859   51.5788 O.2     1  ZINC001065334255   -0.9300
     22 C22        -6.1861    1.2767   52.9408 C.3     1  ZINC001065334255   -0.5900
     23 C23        -6.0493    3.4878   56.6983 C.3     1  ZINC001065334255    0.0600
     24 C24        -5.3443    3.0797   57.9968 C.3     1  ZINC001065334255    0.0500
     25 O25        -6.3240    2.8376   59.0094 O.3     1  ZINC001065334255   -0.3700
     26 H26        -7.0950    3.9230   64.2359 H       1  ZINC001065334255    0.0600
     27 H27        -8.1529    3.0675   63.0882 H       1  ZINC001065334255    0.0500
     28 H28        -8.1959    2.6514   64.8183 H       1  ZINC001065334255    0.0600
     29 H29        -5.8231    2.2305   62.9450 H       1  ZINC001065334255    0.0800
     30 H30        -6.2656    1.4596   65.8651 H       1  ZINC001065334255    0.0500
     31 H31        -4.8473    1.0265   64.8806 H       1  ZINC001065334255    0.0700
     32 H32        -5.1647    2.7311   65.2826 H       1  ZINC001065334255    0.0500
     33 H33        -6.3335   -0.1822   63.3022 H       1  ZINC001065334255    0.0900
     34 H34        -7.7760    0.2745   64.2397 H       1  ZINC001065334255    0.0900
     35 H35        -6.5485    1.8684   61.2141 H       1  ZINC001065334255    0.4000
     36 H36        -8.7606    0.6507   59.7267 H       1  ZINC001065334255    0.0900
     37 H37        -8.8484    2.4127   59.9624 H       1  ZINC001065334255    0.0800
     38 H38        -8.5980    1.2338   57.1386 H       1  ZINC001065334255    0.1100
     39 H39        -8.6900    2.9369   57.6569 H       1  ZINC001065334255    0.0900
     40 H40        -7.6410    3.6549   53.2598 H       1  ZINC001065334255    0.1000
     41 H41        -6.3553    4.4659   54.1872 H       1  ZINC001065334255    0.1000
     42 H42        -6.3736    4.4320   51.4581 H       1  ZINC001065334255    0.1500
     43 H43        -4.8481    4.4161   52.3940 H       1  ZINC001065334255    0.1400
     44 H44        -5.5960    0.3968   53.1975 H       1  ZINC001065334255    0.1400
     45 H45        -7.2101    0.9981   52.6924 H       1  ZINC001065334255    0.1500
     46 H46        -5.3239    3.5362   55.8862 H       1  ZINC001065334255    0.1000
     47 H47        -6.5219    4.4616   56.8274 H       1  ZINC001065334255    0.0900
     48 H48        -4.7654    2.1719   57.8270 H       1  ZINC001065334255    0.0600
     49 H49        -4.6795    3.8817   58.3178 H       1  ZINC001065334255    0.1100
@<TRIPOS>BOND
     1     1     2    1
     2     1    26    1
     3     1    27    1
     4     1    28    1
     5     2     3    1
     6     2     4    1
     7     2    29    1
     8     3    30    1
     9     3    31    1
    10     3    32    1
    11     4     5    1
    12     4    33    1
    13     4    34    1
    14     5     6    2
    15     5     7   am
    16     7     8    1
    17     7    35    1
    18     8     9    1
    19     8    36    1
    20     8    37    1
    21     9    10    1
    22     9    25    1
    23     9    11    1
    24    11    12    1
    25    11    38    1
    26    11    39    1
    27    12    13   am
    28    12    23    1
    29    13    14    2
    30    13    15    1
    31    15    16    1
    32    15    22    1
    33    15    17    1
    34    17    18    1
    35    17    40    1
    36    17    41    1
    37    18    19    1
    38    18    42    1
    39    18    43    1
    40    19    20    2
    41    19    21    2
    42    19    22    1
    43    22    44    1
    44    22    45    1
    45    23    24    1
    46    23    46    1
    47    23    47    1
    48    24    25    1
    49    24    48    1
    50    24    49    1
@<TRIPOS>SUBSTRUCTURE
     1 ZINC001065334255        1 TEMP              0 ****  ****    0 ROOT


##########                                Name:    ZINC000805177769
##########                DOCK_Rotatable_Bonds:                  10
##########                         Heavy_Atoms:                  30
##########                    Molecular_Weight:             417.548
##########                DOCK_Rotatable_Bonds:                  10
##########                       Formal_Charge:           0.0199995
##########                     HBond_Acceptors:                   7
##########                        HBond_Donors:                   1
##########                         Heavy_Atoms:                  30
##########                          Grid_Score:          -29.661007
##########                     Grid_vdw_energy:          -27.267080
##########                      Grid_es_energy:           -2.393926
##########           Internal_energy_repulsive:           37.721333

@<TRIPOS>MOLECULE
ZINC000805177769
 65 66 1 0 0
SMALL
USER_CHARGES


@<TRIPOS>ATOM
      1 C1        -10.8145   -1.1040   53.3711 C.3     1  ZINC000805177769   -0.1200
      2 C2         -9.6410   -0.1602   53.3133 C.ar    1  ZINC000805177769   -0.0800
      3 C3         -9.7828    1.1457   53.7429 C.ar    1  ZINC000805177769   -0.1200
      4 C4         -8.7062    2.0117   53.6898 C.ar    1  ZINC000805177769   -0.1100
      5 C5         -7.4882    1.5712   53.2074 C.ar    1  ZINC000805177769   -0.0900
      6 C6         -6.3149    2.5151   53.1491 C.3     1  ZINC000805177769   -0.0900
      7 C7         -6.3328    3.4273   54.3774 C.3     1  ZINC000805177769    0.1500
      8 H8         -7.2677    3.9872   54.4006 H       1  ZINC000805177769    0.1000
      9 C9         -5.1561    4.4025   54.3055 C.3     1  ZINC000805177769   -0.1700
     10 N10        -6.2201    2.6146   55.5909 N.am    1  ZINC000805177769   -0.6900
     11 C11        -6.6370    3.1081   56.7738 C.2     1  ZINC000805177769    0.5100
     12 O12        -7.1043    4.2264   56.8337 O.2     1  ZINC000805177769   -0.5100
     13 C13        -6.5236    2.2782   58.0115 C.2     1  ZINC000805177769    0.5200
     14 O14        -5.5386    1.5937   58.1949 O.2     1  ZINC000805177769   -0.5200
     15 N15        -7.5155    2.2901   58.9239 N.am    1  ZINC000805177769   -0.5900
     16 C16        -8.7583    3.0697   58.8284 C.3     1  ZINC000805177769    0.1100
     17 C17        -9.5992    2.7468   60.0815 C.3     1  ZINC000805177769   -0.1500
     18 C18        -9.0357    1.3737   60.5337 C.3     1  ZINC000805177769    0.1500
     19 H19        -9.4901    0.5597   59.9689 H       1  ZINC000805177769    0.1200
     20 N20        -9.2222    1.1781   61.9736 N.am    1  ZINC000805177769   -0.5900
     21 C21        -8.0707    0.8742   62.8268 C.3     1  ZINC000805177769    0.0800
     22 C22       -10.4531    1.2776   62.5133 C.2     1  ZINC000805177769    0.6600
     23 O23       -11.4080    1.5311   61.8059 O.2     1  ZINC000805177769   -0.5600
     24 O24       -10.6247    1.0963   63.8364 O.3     1  ZINC000805177769   -0.3600
     25 C25       -11.0245    2.2554   64.6141 C.3     1  ZINC000805177769    0.1400
     26 C26       -12.5340    2.4654   64.4776 C.3     1  ZINC000805177769   -0.1800
     27 C27       -10.6723    2.0284   66.0856 C.3     1  ZINC000805177769   -0.1400
     28 C28       -10.2887    3.4938   64.0987 C.3     1  ZINC000805177769   -0.1800
     29 C29        -7.5368    1.5185   60.1799 C.3     1  ZINC000805177769    0.0900
     30 C30        -7.3460    0.2644   52.7790 C.ar    1  ZINC000805177769   -0.0800
     31 C31        -6.0178   -0.2160   52.2535 C.3     1  ZINC000805177769   -0.1200
     32 C32        -8.4212   -0.6023   52.8356 C.ar    1  ZINC000805177769   -0.1200
     33 H33       -10.8260   -1.6106   54.3362 H       1  ZINC000805177769    0.0700
     34 H34       -11.7396   -0.5417   53.2449 H       1  ZINC000805177769    0.0700
     35 H35       -10.7264   -1.8425   52.5743 H       1  ZINC000805177769    0.0700
     36 H36       -10.7345    1.4899   54.1198 H       1  ZINC000805177769    0.1200
     37 H37        -8.8172    3.0324   54.0248 H       1  ZINC000805177769    0.1200
     38 H38        -5.3879    1.9421   53.1356 H       1  ZINC000805177769    0.0800
     39 H39        -6.3807    3.1212   52.2454 H       1  ZINC000805177769    0.0900
     40 H40        -4.2211    3.8426   54.2822 H       1  ZINC000805177769    0.0600
     41 H41        -5.2400    5.0073   53.4026 H       1  ZINC000805177769    0.0700
     42 H42        -5.1688    5.0524   55.1805 H       1  ZINC000805177769    0.0600
     43 H43        -5.8454    1.7211   55.5433 H       1  ZINC000805177769    0.4100
     44 H44        -8.5269    4.1346   58.8016 H       1  ZINC000805177769    0.0900
     45 H45        -9.3066    2.7847   57.9305 H       1  ZINC000805177769    0.0900
     46 H46        -9.4451    3.5002   60.8540 H       1  ZINC000805177769    0.0900
     47 H47       -10.6557    2.6649   59.8264 H       1  ZINC000805177769    0.0900
     48 H48        -7.6354    1.8035   63.1943 H       1  ZINC000805177769    0.0600
     49 H49        -8.3946    0.2659   63.6712 H       1  ZINC000805177769    0.0800
     50 H50        -7.3251    0.3271   62.2496 H       1  ZINC000805177769    0.0800
     51 H51       -13.0582    1.5830   64.8447 H       1  ZINC000805177769    0.0600
     52 H52       -12.8340    3.3355   65.0614 H       1  ZINC000805177769    0.0700
     53 H53       -12.7849    2.6271   63.4293 H       1  ZINC000805177769    0.0900
     54 H54        -9.5970    1.8788   66.1830 H       1  ZINC000805177769    0.0700
     55 H55       -10.9724    2.8985   66.6695 H       1  ZINC000805177769    0.0800
     56 H56       -11.1966    1.1460   66.4528 H       1  ZINC000805177769    0.0700
     57 H57       -10.5397    3.6556   63.0506 H       1  ZINC000805177769    0.0900
     58 H58       -10.5887    4.3640   64.6827 H       1  ZINC000805177769    0.0700
     59 H59        -9.2134    3.3442   64.1961 H       1  ZINC000805177769    0.0600
     60 H60        -7.0849    0.5375   60.0341 H       1  ZINC000805177769    0.0900
     61 H61        -7.0131    2.0656   60.9639 H       1  ZINC000805177769    0.0800
     62 H62        -5.4238   -0.6134   53.0765 H       1  ZINC000805177769    0.0700
     63 H63        -6.1817   -0.9986   51.5127 H       1  ZINC000805177769    0.0700
     64 H64        -5.4872    0.6164   51.7913 H       1  ZINC000805177769    0.0700
     65 H65        -8.3102   -1.6231   52.5009 H       1  ZINC000805177769    0.1200
@<TRIPOS>BOND
     1     1     2    1
     2     1    33    1
     3     1    34    1
     4     1    35    1
     5     2    32   ar
     6     2     3   ar
     7     3     4   ar
     8     3    36    1
     9     4     5   ar
    10     4    37    1
    11     5     6    1
    12     5    30   ar
    13     6     7    1
    14     6    38    1
    15     6    39    1
    16     7     8    1
    17     7     9    1
    18     7    10    1
    19     9    40    1
    20     9    41    1
    21     9    42    1
    22    10    11   am
    23    10    43    1
    24    11    12    2
    25    11    13    1
    26    13    14    2
    27    13    15   am
    28    15    29    1
    29    15    16    1
    30    16    17    1
    31    16    44    1
    32    16    45    1
    33    17    18    1
    34    17    46    1
    35    17    47    1
    36    18    19    1
    37    18    20    1
    38    18    29    1
    39    20    21    1
    40    20    22   am
    41    21    48    1
    42    21    49    1
    43    21    50    1
    44    22    23    2
    45    22    24    1
    46    24    25    1
    47    25    26    1
    48    25    27    1
    49    25    28    1
    50    26    51    1
    51    26    52    1
    52    26    53    1
    53    27    54    1
    54    27    55    1
    55    27    56    1
    56    28    57    1
    57    28    58    1
    58    28    59    1
    59    29    60    1
    60    29    61    1
    61    30    31    1
    62    30    32   ar
    63    31    62    1
    64    31    63    1
    65    31    64    1
    66    32    65    1
@<TRIPOS>SUBSTRUCTURE
     1 ZINC000805177769        1 TEMP              0 ****  ****    0 ROOT


##########                                Name:    ZINC000301324012
##########                DOCK_Rotatable_Bonds:                   7
##########                         Heavy_Atoms:                  28
##########                    Molecular_Weight:               415.9
##########                DOCK_Rotatable_Bonds:                   7
##########                       Formal_Charge:          -0.0100002
##########                     HBond_Acceptors:                   8
##########                        HBond_Donors:                   2
##########                         Heavy_Atoms:                  28
##########                          Grid_Score:          -29.650715
##########                     Grid_vdw_energy:          -28.007048
##########                      Grid_es_energy:           -1.643666
##########           Internal_energy_repulsive:           13.029740

@<TRIPOS>MOLECULE
ZINC000301324012
 46 48 1 0 0
SMALL
USER_CHARGES


@<TRIPOS>ATOM
      1 C1         -6.9789    0.4689   59.7496 C.3     1  ZINC000301324012   -0.1600
      2 C2         -8.1730    0.9929   60.5500 C.3     1  ZINC000301324012    0.2000
      3 H3         -8.3357    2.0444   60.3134 H       1  ZINC000301324012    0.1100
      4 N4         -9.3699    0.2232   60.2017 N.am    1  ZINC000301324012   -0.7100
      5 C5        -10.5329    0.8592   59.9582 C.2     1  ZINC000301324012    0.5500
      6 O6        -10.5884    2.0716   60.0258 O.2     1  ZINC000301324012   -0.5300
      7 C7        -11.7411    0.0823   59.6085 C.ar    1  ZINC000301324012   -0.0700
      8 C8        -11.7881   -1.2904   59.8568 C.ar    1  ZINC000301324012   -0.1100
      9 C9        -12.9187   -2.0094   59.5286 C.ar    1  ZINC000301324012   -0.0200
     10 C10       -14.0045   -1.3729   58.9540 C.ar    1  ZINC000301324012   -0.6600
     11 S11       -15.4446   -2.2988   58.5374 S.o2    1  ZINC000301324012    2.6900
     12 O12       -15.5026   -3.3840   59.4530 O.2     1  ZINC000301324012   -0.9400
     13 O13       -16.4965   -1.3562   58.3819 O.2     1  ZINC000301324012   -0.9400
     14 N14       -15.1858   -2.9617   57.0422 N.am    1  ZINC000301324012   -1.0500
     15 C15       -14.9463   -2.1331   55.9426 C.ar    1  ZINC000301324012    0.1600
     16 C16       -13.6642   -1.6629   55.6917 C.ar    1  ZINC000301324012   -0.1600
     17 C17       -13.4307   -0.8440   54.6038 C.ar    1  ZINC000301324012   -0.0800
     18 C18       -14.4717   -0.4919   53.7650 C.ar    1  ZINC000301324012   -0.1200
     19 C19       -15.7505   -0.9582   54.0111 C.ar    1  ZINC000301324012   -0.0900
     20 C20       -15.9901   -1.7825   55.0938 C.ar    1  ZINC000301324012   -0.0600
     21 Cl21      -17.5952   -2.3675   55.4024 Cl      1  ZINC000301324012   -0.0600
     22 C22       -13.9647   -0.0122   58.7057 C.ar    1  ZINC000301324012   -0.0200
     23 C23       -12.8421    0.7193   59.0339 C.ar    1  ZINC000301324012   -0.0800
     24 C24        -7.8929    0.8470   62.0235 C.ar    1  ZINC000301324012    0.1200
     25 C25        -8.9426    0.6649   62.9034 C.ar    1  ZINC000301324012   -0.1600
     26 C26        -8.6740    0.5313   64.2573 C.ar    1  ZINC000301324012   -0.0700
     27 C27        -7.3538    0.5862   64.6766 C.ar    1  ZINC000301324012   -0.1700
     28 C28        -6.3561    0.7709   63.7379 C.ar    1  ZINC000301324012    0.1100
     29 N29        -6.6482    0.8892   62.4575 N.ar    1  ZINC000301324012   -0.4900
     30 H30        -6.0884    1.0416   60.0086 H       1  ZINC000301324012    0.0700
     31 H31        -6.8163   -0.5826   59.9860 H       1  ZINC000301324012    0.0600
     32 H32        -7.1815    0.5745   58.6837 H       1  ZINC000301324012    0.0700
     33 H33        -9.3253   -0.7442   60.1467 H       1  ZINC000301324012    0.4100
     34 H34       -10.9408   -1.7886   60.3046 H       1  ZINC000301324012    0.1400
     35 H35       -12.9563   -3.0717   59.7202 H       1  ZINC000301324012    0.1500
     36 H36       -15.2005   -3.9250   56.9296 H       1  ZINC000301324012    0.4300
     37 H37       -12.8503   -1.9367   56.3467 H       1  ZINC000301324012    0.1700
     38 H38       -12.4335   -0.4780   54.4085 H       1  ZINC000301324012    0.1400
     39 H39       -14.2862    0.1489   52.9157 H       1  ZINC000301324012    0.1400
     40 H40       -16.5614   -0.6813   53.3539 H       1  ZINC000301324012    0.1400
     41 H41       -14.8158    0.4787   58.2573 H       1  ZINC000301324012    0.1500
     42 H42       -12.8125    1.7814   58.8399 H       1  ZINC000301324012    0.1500
     43 H43        -9.9594    0.6276   62.5414 H       1  ZINC000301324012    0.1400
     44 H44        -9.4744    0.3883   64.9682 H       1  ZINC000301324012    0.1400
     45 H45        -7.1079    0.4862   65.7235 H       1  ZINC000301324012    0.1400
     46 H46        -5.3251    0.8151   64.0565 H       1  ZINC000301324012    0.1600
@<TRIPOS>BOND
     1     1     2    1
     2     1    30    1
     3     1    31    1
     4     1    32    1
     5     2     3    1
     6     2     4    1
     7     2    24    1
     8     4     5   am
     9     4    33    1
    10     5     6    2
    11     5     7    1
    12     7    23   ar
    13     7     8   ar
    14     8     9   ar
    15     8    34    1
    16     9    10   ar
    17     9    35    1
    18    10    11    1
    19    10    22   ar
    20    11    12    2
    21    11    13    2
    22    11    14   am
    23    14    15    1
    24    14    36    1
    25    15    20   ar
    26    15    16   ar
    27    16    17   ar
    28    16    37    1
    29    17    18   ar
    30    17    38    1
    31    18    19   ar
    32    18    39    1
    33    19    20   ar
    34    19    40    1
    35    20    21    1
    36    22    23   ar
    37    22    41    1
    38    23    42    1
    39    24    29   ar
    40    24    25   ar
    41    25    26   ar
    42    25    43    1
    43    26    27   ar
    44    26    44    1
    45    27    28   ar
    46    27    45    1
    47    28    29   ar
    48    28    46    1
@<TRIPOS>SUBSTRUCTURE
     1 ZINC000301324012        1 TEMP              0 ****  ****    0 ROOT


##########                                Name:    ZINC000442864105
##########                DOCK_Rotatable_Bonds:                   7
##########                         Heavy_Atoms:                  30
##########                    Molecular_Weight:              414.39
##########                DOCK_Rotatable_Bonds:                   7
##########                       Formal_Charge:           0.0200001
##########                     HBond_Acceptors:                  10
##########                        HBond_Donors:                   2
##########                         Heavy_Atoms:                  30
##########                          Grid_Score:          -29.647034
##########                     Grid_vdw_energy:          -29.673697
##########                      Grid_es_energy:            0.026663
##########           Internal_energy_repulsive:            8.273930

@<TRIPOS>MOLECULE
ZINC000442864105
 47 50 1 0 0
SMALL
USER_CHARGES


@<TRIPOS>ATOM
      1 C1         -5.9367    3.9147   54.1569 C.3     1  ZINC000442864105    0.0800
      2 N2         -5.7031    2.7771   53.2638 N.pl3   1  ZINC000442864105   -0.4900
      3 C3         -4.6462    2.6584   52.4003 C.2     1  ZINC000442864105    0.0300
      4 C4         -4.7308    1.4986   51.7306 C.2     1  ZINC000442864105   -0.1900
      5 C5         -5.9402    0.8181   52.2027 C.ar    1  ZINC000442864105   -0.1600
      6 C6         -6.5516   -0.3977   51.8906 C.ar    1  ZINC000442864105   -0.0200
      7 C7         -7.7064   -0.7604   52.5228 C.ar    1  ZINC000442864105   -0.2100
      8 C8         -8.2807    0.0754   53.4793 C.ar    1  ZINC000442864105    0.2400
      9 N9         -9.4631   -0.3104   54.1175 N.pl3   1  ZINC000442864105   -0.7400
     10 C10        -9.7542   -1.7313   54.3237 C.3     1  ZINC000442864105    0.1100
     11 C11       -10.4663   -1.9124   55.6394 C.2     1  ZINC000442864105    0.5100
     12 O12       -10.5231   -3.0101   56.1523 O.2     1  ZINC000442864105   -0.5100
     13 N13       -11.0400   -0.8546   56.2464 N.am    1  ZINC000442864105   -0.6600
     14 C14       -11.7014   -1.0228   57.4685 C.ar    1  ZINC000442864105    0.1600
     15 C15       -12.8493   -1.7986   57.5372 C.ar    1  ZINC000442864105   -0.0700
     16 C16       -13.5007   -1.9632   58.7450 C.ar    1  ZINC000442864105   -0.1600
     17 C17       -14.7476   -2.8065   58.8172 C.3     1  ZINC000442864105    0.5100
     18 F18       -15.0522   -3.0747   60.1560 F       1  ZINC000442864105   -0.1700
     19 F19       -15.8116   -2.1171   58.2258 F       1  ZINC000442864105   -0.1700
     20 F20       -14.5363   -4.0105   58.1368 F       1  ZINC000442864105   -0.1700
     21 C21       -13.0114   -1.3568   59.8874 C.ar    1  ZINC000442864105   -0.0600
     22 C22       -11.8686   -0.5817   59.8281 C.ar    1  ZINC000442864105   -0.1100
     23 C23       -11.2052   -0.4156   58.6218 C.ar    1  ZINC000442864105    0.1500
     24 N24       -10.0454    0.3704   58.5592 N.pl3   1  ZINC000442864105   -0.3300
     25 C25        -9.8522    1.4659   57.7996 C.2     1  ZINC000442864105    0.2800
     26 N26        -8.6421    1.9091   58.0278 N.2     1  ZINC000442864105   -0.5300
     27 C27        -8.0357    1.1286   58.9214 C.2     1  ZINC000442864105    0.2300
     28 N28        -8.8563    0.1760   59.2809 N.2     1  ZINC000442864105   -0.3400
     29 C29        -7.6888    1.2843   53.8024 C.ar    1  ZINC000442864105   -0.2100
     30 C30        -6.5099    1.6650   53.1712 C.ar    1  ZINC000442864105    0.1500
     31 H31        -5.4420    3.7349   55.1114 H       1  ZINC000442864105    0.0700
     32 H32        -5.5342    4.8208   53.7042 H       1  ZINC000442864105    0.0800
     33 H33        -7.0078    4.0347   54.3198 H       1  ZINC000442864105    0.0800
     34 H34        -3.8611    3.3897   52.2768 H       1  ZINC000442864105    0.1700
     35 H35        -4.0392    1.1357   50.9848 H       1  ZINC000442864105    0.1400
     36 H36        -6.1123   -1.0499   51.1502 H       1  ZINC000442864105    0.1200
     37 H37        -8.1782   -1.7009   52.2799 H       1  ZINC000442864105    0.1200
     38 H38       -10.0908    0.3627   54.4239 H       1  ZINC000442864105    0.4100
     39 H39       -10.3883   -2.0935   53.5145 H       1  ZINC000442864105    0.1000
     40 H40        -8.8216   -2.2954   54.3348 H       1  ZINC000442864105    0.1000
     41 H41       -10.9945    0.0232   55.8364 H       1  ZINC000442864105    0.4300
     42 H42       -13.2341   -2.2736   56.6469 H       1  ZINC000442864105    0.1700
     43 H43       -13.5241   -1.4889   60.8287 H       1  ZINC000442864105    0.1500
     44 H44       -11.4895   -0.1092   60.7222 H       1  ZINC000442864105    0.1500
     45 H45       -10.5700    1.9017   57.1204 H       1  ZINC000442864105    0.2300
     46 H46        -7.0304    1.2635   59.2922 H       1  ZINC000442864105    0.2300
     47 H47        -8.1387    1.9273   54.5444 H       1  ZINC000442864105    0.1200
@<TRIPOS>BOND
     1     1     2    1
     2     1    31    1
     3     1    32    1
     4     1    33    1
     5     2    30    1
     6     2     3    1
     7     3     4    2
     8     3    34    1
     9     4     5    1
    10     4    35    1
    11     5    30   ar
    12     5     6   ar
    13     6     7   ar
    14     6    36    1
    15     7     8   ar
    16     7    37    1
    17     8     9    1
    18     8    29   ar
    19     9    10    1
    20     9    38    1
    21    10    11    1
    22    10    39    1
    23    10    40    1
    24    11    12    2
    25    11    13   am
    26    13    14    1
    27    13    41    1
    28    14    23   ar
    29    14    15   ar
    30    15    16   ar
    31    15    42    1
    32    16    17    1
    33    16    21   ar
    34    17    18    1
    35    17    19    1
    36    17    20    1
    37    21    22   ar
    38    21    43    1
    39    22    23   ar
    40    22    44    1
    41    23    24    1
    42    24    28    1
    43    24    25    1
    44    25    26    2
    45    25    45    1
    46    26    27    1
    47    27    28    2
    48    27    46    1
    49    29    30   ar
    50    29    47    1
@<TRIPOS>SUBSTRUCTURE
     1 ZINC000442864105        1 TEMP              0 ****  ****    0 ROOT


##########                                Name:    ZINC000652498551
##########                DOCK_Rotatable_Bonds:                   6
##########                         Heavy_Atoms:                  23
##########                    Molecular_Weight:             388.277
##########                DOCK_Rotatable_Bonds:                   6
##########                       Formal_Charge:          -0.0400001
##########                     HBond_Acceptors:                   5
##########                        HBond_Donors:                   1
##########                         Heavy_Atoms:                  23
##########                          Grid_Score:          -29.643356
##########                     Grid_vdw_energy:          -26.864504
##########                      Grid_es_energy:           -2.778852
##########           Internal_energy_repulsive:           18.025806

@<TRIPOS>MOLECULE
ZINC000652498551
 46 47 1 0 0
SMALL
USER_CHARGES


@<TRIPOS>ATOM
      1 C1        -15.5381   -3.5161   58.5490 C.3     1  ZINC000652498551   -0.1300
      2 C2        -15.0077   -2.4590   57.5783 C.3     1  ZINC000652498551   -0.1300
      3 C3        -15.6722   -2.6418   56.2123 C.3     1  ZINC000652498551   -0.1300
      4 C4        -15.3232   -1.0849   58.1105 C.2     1  ZINC000652498551    0.5000
      5 O5        -15.4945   -0.9187   59.3061 O.co2   1  ZINC000652498551   -0.7000
      6 O6        -15.4072   -0.1393   57.3455 O.co2   1  ZINC000652498551   -0.6700
      7 C7        -13.4925   -2.6142   57.4332 C.3     1  ZINC000652498551   -0.0600
      8 H8        -13.2570   -3.6414   57.1548 H       1  ZINC000652498551    0.0700
      9 C9        -12.8142   -2.2767   58.7641 C.3     1  ZINC000652498551   -0.1500
     10 C10       -11.2953   -2.3591   58.5869 C.3     1  ZINC000652498551   -0.1400
     11 C11       -10.8667   -1.4148   57.4617 C.3     1  ZINC000652498551   -0.0100
     12 N12       -11.5285   -1.8057   56.2112 N.4     1  ZINC000652498551   -0.3800
     13 H13       -11.3062   -2.7671   56.0005 H       1  ZINC000652498551    0.4200
     14 C14       -11.0561   -0.9446   55.1189 C.3     1  ZINC000652498551    0.0000
     15 C15        -9.5438   -1.1105   54.9564 C.3     1  ZINC000652498551    0.0200
     16 O16        -9.1703   -0.7859   53.6157 O.3     1  ZINC000652498551   -0.3100
     17 C17        -8.5397    0.4021   53.4215 C.ar    1  ZINC000652498551    0.1600
     18 C18        -9.1411    1.5825   53.8313 C.ar    1  ZINC000652498551   -0.2300
     19 C19        -8.4970    2.7913   53.6325 C.ar    1  ZINC000652498551    0.1500
     20 F20        -9.0821    3.9418   54.0314 F       1  ZINC000652498551   -0.1200
     21 C21        -7.2532    2.8215   53.0251 C.ar    1  ZINC000652498551   -0.1600
     22 C22        -6.6528    1.6443   52.6154 C.ar    1  ZINC000652498551   -0.0300
     23 Br23       -4.9539    1.6892   51.7863 Br      1  ZINC000652498551   -0.0100
     24 C24        -7.2907    0.4349   52.8178 C.ar    1  ZINC000652498551   -0.1300
     25 C25       -12.9827   -1.6613   56.3500 C.3     1  ZINC000652498551   -0.0200
     26 H26       -15.3099   -4.5100   58.1640 H       1  ZINC000652498551    0.0400
     27 H27       -15.0648   -3.3858   59.5221 H       1  ZINC000652498551    0.0500
     28 H28       -16.6176   -3.4054   58.6523 H       1  ZINC000652498551    0.0600
     29 H29       -16.7516   -2.5312   56.3156 H       1  ZINC000652498551    0.0700
     30 H30       -15.2944   -1.8887   55.5208 H       1  ZINC000652498551    0.0400
     31 H31       -15.4440   -3.6357   55.8273 H       1  ZINC000652498551    0.0500
     32 H32       -13.0915   -1.2677   59.0689 H       1  ZINC000652498551    0.1300
     33 H33       -13.1315   -2.9890   59.5258 H       1  ZINC000652498551    0.0800
     34 H34       -10.8043   -2.0661   59.5148 H       1  ZINC000652498551    0.1000
     35 H35       -11.0134   -3.3807   58.3320 H       1  ZINC000652498551    0.0700
     36 H36       -11.1488   -0.3936   57.7177 H       1  ZINC000652498551    0.1300
     37 H37        -9.7858   -1.4708   57.3330 H       1  ZINC000652498551    0.1100
     38 H38       -11.5543   -1.2275   54.1917 H       1  ZINC000652498551    0.1400
     39 H39       -11.2845    0.0955   55.3513 H       1  ZINC000652498551    0.1500
     40 H40        -9.0287   -0.4444   55.6484 H       1  ZINC000652498551    0.1100
     41 H41        -9.2664   -2.1425   55.1710 H       1  ZINC000652498551    0.0900
     42 H42       -10.1113    1.5586   54.3051 H       1  ZINC000652498551    0.1500
     43 H43        -6.7512    3.7651   52.8706 H       1  ZINC000652498551    0.1500
     44 H44        -6.8212   -0.4835   52.4980 H       1  ZINC000652498551    0.1500
     45 H45       -13.4631   -1.8989   55.4009 H       1  ZINC000652498551    0.1100
     46 H46       -13.2204   -0.6350   56.6297 H       1  ZINC000652498551    0.1700
@<TRIPOS>BOND
     1     1     2    1
     2     1    26    1
     3     1    27    1
     4     1    28    1
     5     2     3    1
     6     2     4    1
     7     2     7    1
     8     3    29    1
     9     3    30    1
    10     3    31    1
    11     4     5   ar
    12     4     6   ar
    13     7     8    1
    14     7    25    1
    15     7     9    1
    16     9    10    1
    17     9    32    1
    18     9    33    1
    19    10    11    1
    20    10    34    1
    21    10    35    1
    22    11    12    1
    23    11    36    1
    24    11    37    1
    25    12    13    1
    26    12    14    1
    27    12    25    1
    28    14    15    1
    29    14    38    1
    30    14    39    1
    31    15    16    1
    32    15    40    1
    33    15    41    1
    34    16    17    1
    35    17    24   ar
    36    17    18   ar
    37    18    19   ar
    38    18    42    1
    39    19    20    1
    40    19    21   ar
    41    21    22   ar
    42    21    43    1
    43    22    23    1
    44    22    24   ar
    45    24    44    1
    46    25    45    1
    47    25    46    1
@<TRIPOS>SUBSTRUCTURE
     1 ZINC000652498551        1 TEMP              0 ****  ****    0 ROOT


##########                                Name:    ZINC000437192871
##########                DOCK_Rotatable_Bonds:                   9
##########                         Heavy_Atoms:                  28
##########                    Molecular_Weight:             423.298
##########                DOCK_Rotatable_Bonds:                   9
##########                       Formal_Charge:         -8.9407e-08
##########                     HBond_Acceptors:                   9
##########                        HBond_Donors:                   1
##########                         Heavy_Atoms:                  28
##########                          Grid_Score:          -29.642084
##########                     Grid_vdw_energy:          -29.669691
##########                      Grid_es_energy:            0.027606
##########           Internal_energy_repulsive:           12.882538

@<TRIPOS>MOLECULE
ZINC000437192871
 48 50 1 0 0
SMALL
USER_CHARGES


@<TRIPOS>ATOM
      1 C1         -6.0339    2.1114   52.1282 C.3     1  ZINC000437192871   -0.1700
      2 C2         -6.2847    0.6154   52.3289 C.3     1  ZINC000437192871    0.1300
      3 N3         -7.4012    0.4278   53.2588 N.pl3   1  ZINC000437192871   -0.3600
      4 C4         -8.3048   -0.5737   53.2226 C.2     1  ZINC000437192871    0.0700
      5 C5         -9.1678   -0.3880   54.2481 C.2     1  ZINC000437192871   -0.2700
      6 C6        -10.3407   -1.2699   54.5907 C.3     1  ZINC000437192871    0.1900
      7 N7        -10.4726   -1.3634   56.0468 N.am    1  ZINC000437192871   -0.6000
      8 C8         -9.6760   -2.3405   56.7931 C.3     1  ZINC000437192871    0.1100
      9 C9        -10.4826   -3.6287   56.9685 C.3     1  ZINC000437192871    0.0600
     10 O10        -9.8150   -4.4863   57.8962 O.3     1  ZINC000437192871   -0.5600
     11 C11       -11.3266   -0.5505   56.6996 C.2     1  ZINC000437192871    0.6000
     12 O12       -11.9877    0.2608   56.0801 O.2     1  ZINC000437192871   -0.5000
     13 C13       -11.4591   -0.6445   58.1634 C.2     1  ZINC000437192871   -0.2200
     14 C14       -12.4375   -1.2682   58.8957 C.2     1  ZINC000437192871    0.0100
     15 C15       -13.6283   -2.0171   58.3551 C.3     1  ZINC000437192871   -0.0800
     16 O16       -12.1278   -1.0823   60.1809 O.3     1  ZINC000437192871    0.1100
     17 N17       -11.1164   -0.4447   60.3425 N.2     1  ZINC000437192871   -0.3200
     18 C18       -10.5673   -0.0958   59.2067 C.2     1  ZINC000437192871    0.0800
     19 C19        -9.3244    0.6881   59.0093 C.ar    1  ZINC000437192871   -0.0200
     20 C20        -8.0814    0.0667   59.1160 C.ar    1  ZINC000437192871   -0.0700
     21 C21        -6.9276    0.8004   58.9309 C.ar    1  ZINC000437192871   -0.1000
     22 C22        -7.0022    2.1519   58.6395 C.ar    1  ZINC000437192871   -0.0100
     23 Cl23       -5.5461    3.0684   58.4074 Cl      1  ZINC000437192871   -0.0500
     24 C24        -8.2338    2.7750   58.5321 C.ar    1  ZINC000437192871   -0.1100
     25 C25        -9.3949    2.0491   58.7102 C.ar    1  ZINC000437192871    0.0000
     26 Cl26      -10.9389    2.8309   58.5749 Cl      1  ZINC000437192871   -0.0300
     27 C27        -8.7782    0.7667   54.9346 C.2     1  ZINC000437192871    0.0600
     28 N28        -7.7158    1.2533   54.3460 N.2     1  ZINC000437192871   -0.2900
     29 H29        -5.2033    2.2509   51.4364 H       1  ZINC000437192871    0.0800
     30 H30        -6.9299    2.5784   51.7192 H       1  ZINC000437192871    0.0600
     31 H31        -5.7900    2.5706   53.0863 H       1  ZINC000437192871    0.0700
     32 H32        -6.5287    0.1562   51.3708 H       1  ZINC000437192871    0.1000
     33 H33        -5.3889    0.1485   52.7380 H       1  ZINC000437192871    0.0900
     34 H34        -8.3342   -1.3792   52.5036 H       1  ZINC000437192871    0.1600
     35 H35       -11.2513   -0.8430   54.1701 H       1  ZINC000437192871    0.0900
     36 H36       -10.1806   -2.2650   54.1757 H       1  ZINC000437192871    0.0800
     37 H37        -8.7596   -2.5575   56.2443 H       1  ZINC000437192871    0.1000
     38 H38        -9.4251   -1.9327   57.7724 H       1  ZINC000437192871    0.1000
     39 H39       -11.4757   -3.3869   57.3472 H       1  ZINC000437192871    0.0600
     40 H40       -10.5737   -4.1342   56.0070 H       1  ZINC000437192871    0.0500
     41 H41        -9.7307   -4.1148   58.7849 H       1  ZINC000437192871    0.3800
     42 H42       -13.3960   -3.0808   58.3042 H       1  ZINC000437192871    0.1000
     43 H43       -14.4837   -1.8629   59.0128 H       1  ZINC000437192871    0.0900
     44 H44       -13.8664   -1.6491   57.3570 H       1  ZINC000437192871    0.0900
     45 H45        -8.0215   -0.9873   59.3436 H       1  ZINC000437192871    0.1600
     46 H46        -5.9641    0.3195   59.0138 H       1  ZINC000437192871    0.1500
     47 H47        -8.2866    3.8294   58.3047 H       1  ZINC000437192871    0.1500
     48 H48        -9.2669    1.1821   55.8034 H       1  ZINC000437192871    0.1800
@<TRIPOS>BOND
     1     1     2    1
     2     1    29    1
     3     1    30    1
     4     1    31    1
     5     2     3    1
     6     2    32    1
     7     2    33    1
     8     3    28    1
     9     3     4    1
    10     4     5    2
    11     4    34    1
    12     5     6    1
    13     5    27    1
    14     6     7    1
    15     6    35    1
    16     6    36    1
    17     7     8    1
    18     7    11   am
    19     8     9    1
    20     8    37    1
    21     8    38    1
    22     9    10    1
    23     9    39    1
    24     9    40    1
    25    10    41    1
    26    11    12    2
    27    11    13    1
    28    13    18    1
    29    13    14    2
    30    14    15    1
    31    14    16    1
    32    15    42    1
    33    15    43    1
    34    15    44    1
    35    16    17    1
    36    17    18    2
    37    18    19    1
    38    19    25   ar
    39    19    20   ar
    40    20    21   ar
    41    20    45    1
    42    21    22   ar
    43    21    46    1
    44    22    23    1
    45    22    24   ar
    46    24    25   ar
    47    24    47    1
    48    25    26    1
    49    27    28    2
    50    27    48    1
@<TRIPOS>SUBSTRUCTURE
     1 ZINC000437192871        1 TEMP              0 ****  ****    0 ROOT


##########                                Name:    ZINC000590699876
##########                DOCK_Rotatable_Bonds:                   9
##########                         Heavy_Atoms:                  30
##########                    Molecular_Weight:              421.54
##########                DOCK_Rotatable_Bonds:                   9
##########                       Formal_Charge:          -0.0300004
##########                     HBond_Acceptors:                   9
##########                        HBond_Donors:                   1
##########                         Heavy_Atoms:                  30
##########                          Grid_Score:          -29.630596
##########                     Grid_vdw_energy:          -29.066540
##########                      Grid_es_energy:           -0.564056
##########           Internal_energy_repulsive:          104.585930

@<TRIPOS>MOLECULE
ZINC000590699876
 65 67 1 0 0
SMALL
USER_CHARGES


@<TRIPOS>ATOM
      1 C1         -1.2259    2.4296   66.1317 C.3     1  ZINC000590699876   -0.1700
      2 C2         -2.6989    2.5887   65.8567 C.2     1  ZINC000590699876    0.5100
      3 O3         -3.2727    3.6026   66.1939 O.2     1  ZINC000590699876   -0.5500
      4 N4         -3.3787    1.6044   65.2359 N.am    1  ZINC000590699876   -0.7200
      5 C5         -4.8105    1.7598   64.9669 C.3     1  ZINC000590699876    0.1100
      6 C6         -5.6016    1.2272   66.1337 C.2     1  ZINC000590699876    0.5300
      7 O7         -5.1362    1.2719   67.2527 O.2     1  ZINC000590699876   -0.5200
      8 N8         -6.8261    0.7011   65.9335 N.am    1  ZINC000590699876   -0.6000
      9 C9         -7.7046    0.1467   66.9798 C.3     1  ZINC000590699876    0.1000
     10 C10        -9.1358    0.2627   66.3983 C.3     1  ZINC000590699876   -0.1300
     11 C11        -8.8890   -0.0500   64.8987 C.3     1  ZINC000590699876   -0.1300
     12 C12        -7.5097    0.5906   64.6366 C.3     1  ZINC000590699876    0.1200
     13 H13        -6.9271   -0.0442   63.9690 H       1  ZINC000590699876    0.1000
     14 C14        -7.6868    1.9548   64.0214 C.2     1  ZINC000590699876    0.5100
     15 O15        -7.5070    2.9499   64.6909 O.2     1  ZINC000590699876   -0.5200
     16 N16        -8.0449    2.0691   62.7272 N.am    1  ZINC000590699876   -0.6100
     17 C17        -8.2155    3.3908   62.1049 C.3     1  ZINC000590699876    0.1000
     18 C18        -7.3997    3.4272   60.8082 C.3     1  ZINC000590699876    0.0400
     19 N19        -7.7803    2.2885   59.9618 N.3     1  ZINC000590699876   -0.5200
     20 C20        -7.1483    2.3814   58.6390 C.3     1  ZINC000590699876    0.0400
     21 C21        -8.1266    1.9368   57.5826 C.2     1  ZINC000590699876    0.5200
     22 O22        -9.2208    1.5244   57.9044 O.2     1  ZINC000590699876   -0.5100
     23 N23        -7.7857    1.9976   56.2800 N.am    1  ZINC000590699876   -0.6100
     24 C24        -6.4641    2.4950   55.8745 C.3     1  ZINC000590699876    0.1100
     25 C25        -6.6530    3.6190   54.8510 C.3     1  ZINC000590699876   -0.1400
     26 C26        -7.5152    3.1099   53.6936 C.3     1  ZINC000590699876   -0.1200
     27 C27        -8.8921    2.7015   54.2222 C.3     1  ZINC000590699876   -0.1300
     28 C28        -8.7265    1.5619   55.2389 C.3     1  ZINC000590699876    0.1400
     29 H29        -8.3381    0.6765   54.7353 H       1  ZINC000590699876    0.0700
     30 C30       -10.0811    1.2389   55.8725 C.3     1  ZINC000590699876   -0.1400
     31 C31        -7.4575    1.0109   60.6109 C.3     1  ZINC000590699876    0.0400
     32 C32        -8.2697    0.8753   61.8979 C.3     1  ZINC000590699876    0.1200
     33 H33        -0.8521    3.3205   66.6363 H       1  ZINC000590699876    0.1000
     34 H34        -1.0668    1.5584   66.7672 H       1  ZINC000590699876    0.0900
     35 H35        -0.6930    2.2947   65.1904 H       1  ZINC000590699876    0.0900
     36 H36        -2.9201    0.7931   64.9671 H       1  ZINC000590699876    0.4100
     37 H37        -5.0407    2.8156   64.8234 H       1  ZINC000590699876    0.1000
     38 H38        -5.0732    1.2050   64.0661 H       1  ZINC000590699876    0.1000
     39 H39        -7.4558   -0.8974   67.1699 H       1  ZINC000590699876    0.0800
     40 H40        -7.6188    0.7310   67.8959 H       1  ZINC000590699876    0.0800
     41 H41        -9.8008   -0.4753   66.8469 H       1  ZINC000590699876    0.0900
     42 H42        -9.5294    1.2709   66.5275 H       1  ZINC000590699876    0.0800
     43 H43        -8.8570   -1.1263   64.7294 H       1  ZINC000590699876    0.1000
     44 H44        -9.6527    0.4167   64.2767 H       1  ZINC000590699876    0.0900
     45 H45        -9.2690    3.5562   61.8795 H       1  ZINC000590699876    0.0800
     46 H46        -7.8577    4.1643   62.7845 H       1  ZINC000590699876    0.0900
     47 H47        -7.6011    4.3580   60.2779 H       1  ZINC000590699876    0.0900
     48 H48        -6.3374    3.3656   61.0449 H       1  ZINC000590699876    0.0400
     49 H49        -6.8526    3.4133   58.4492 H       1  ZINC000590699876    0.1000
     50 H50        -6.2673    1.7402   58.6114 H       1  ZINC000590699876    0.0600
     51 H51        -5.9352    2.8799   56.7464 H       1  ZINC000590699876    0.0800
     52 H52        -5.8906    1.6842   55.4253 H       1  ZINC000590699876    0.0700
     53 H53        -7.1469    4.4658   55.3275 H       1  ZINC000590699876    0.0700
     54 H54        -5.6806    3.9316   54.4702 H       1  ZINC000590699876    0.0800
     55 H55        -7.6307    3.9002   52.9518 H       1  ZINC000590699876    0.0700
     56 H56        -7.0326    2.2479   53.2331 H       1  ZINC000590699876    0.0600
     57 H57        -9.3650    3.5570   54.7047 H       1  ZINC000590699876    0.0700
     58 H58        -9.5134    2.3611   53.3938 H       1  ZINC000590699876    0.0700
     59 H59       -10.7984    0.9912   55.0900 H       1  ZINC000590699876    0.0400
     60 H60        -9.9732    0.3904   56.5482 H       1  ZINC000590699876    0.0700
     61 H61       -10.4369    2.1049   56.4306 H       1  ZINC000590699876    0.0700
     62 H62        -7.7009    0.1890   59.9374 H       1  ZINC000590699876    0.1100
     63 H63        -6.3945    0.9828   60.8503 H       1  ZINC000590699876    0.0300
     64 H64        -7.9505   -0.0146   62.4401 H       1  ZINC000590699876    0.0900
     65 H65        -9.3297    0.7994   61.6556 H       1  ZINC000590699876    0.0800
@<TRIPOS>BOND
     1     1     2    1
     2     1    33    1
     3     1    34    1
     4     1    35    1
     5     2     3    2
     6     2     4   am
     7     4     5    1
     8     4    36    1
     9     5     6    1
    10     5    37    1
    11     5    38    1
    12     6     7    2
    13     6     8   am
    14     8    12    1
    15     8     9    1
    16     9    10    1
    17     9    39    1
    18     9    40    1
    19    10    11    1
    20    10    41    1
    21    10    42    1
    22    11    12    1
    23    11    43    1
    24    11    44    1
    25    12    13    1
    26    12    14    1
    27    14    15    2
    28    14    16   am
    29    16    32    1
    30    16    17    1
    31    17    18    1
    32    17    45    1
    33    17    46    1
    34    18    19    1
    35    18    47    1
    36    18    48    1
    37    19    20    1
    38    19    31    1
    39    20    21    1
    40    20    49    1
    41    20    50    1
    42    21    22    2
    43    21    23   am
    44    23    28    1
    45    23    24    1
    46    24    25    1
    47    24    51    1
    48    24    52    1
    49    25    26    1
    50    25    53    1
    51    25    54    1
    52    26    27    1
    53    26    55    1
    54    26    56    1
    55    27    28    1
    56    27    57    1
    57    27    58    1
    58    28    29    1
    59    28    30    1
    60    30    59    1
    61    30    60    1
    62    30    61    1
    63    31    32    1
    64    31    62    1
    65    31    63    1
    66    32    64    1
    67    32    65    1
@<TRIPOS>SUBSTRUCTURE
     1 ZINC000590699876        1 TEMP              0 ****  ****    0 ROOT


##########                                Name:    ZINC000328606936
##########                DOCK_Rotatable_Bonds:                   6
##########                         Heavy_Atoms:                  23
##########                    Molecular_Weight:             338.428
##########                DOCK_Rotatable_Bonds:                   6
##########                       Formal_Charge:           0.0100001
##########                     HBond_Acceptors:                   7
##########                        HBond_Donors:                   2
##########                         Heavy_Atoms:                  23
##########                          Grid_Score:          -29.628426
##########                     Grid_vdw_energy:          -30.036871
##########                      Grid_es_energy:            0.408445
##########           Internal_energy_repulsive:           13.146863

@<TRIPOS>MOLECULE
ZINC000328606936
 45 47 1 0 0
SMALL
USER_CHARGES


@<TRIPOS>ATOM
      1 C1        -10.9445   -0.1908   59.4385 C.3     1  <0>        -0.0500
      2 N2         -9.5658   -0.6782   59.2990 N.4     1  <0>        -0.3500
      3 H3         -9.3669   -1.3397   60.0346 H       1  <0>         0.4200
      4 C4         -8.6343    0.4537   59.3935 C.3     1  <0>        -0.0900
      5 C5         -7.2185   -0.0500   59.2797 C.2     1  <0>         0.4900
      6 O6         -6.9350   -1.1668   59.6783 O.co2   1  <0>        -0.6700
      7 O7         -6.3567    0.6592   58.7890 O.co2   1  <0>        -0.6400
      8 C8         -9.4081   -1.3347   57.9943 C.3     1  <0>         0.0100
      9 H9         -8.4081   -1.7586   57.9028 H       1  <0>         0.1600
     10 C10        -9.6715   -0.3295   56.8525 C.3     1  <0>         0.1000
     11 N11       -10.3736   -1.1190   55.8140 N.am    1  <0>        -0.6200
     12 C12       -10.2124   -1.0556   54.4774 C.2     1  <0>         0.6200
     13 O13       -10.8700   -1.7768   53.7503 O.2     1  <0>        -0.5100
     14 C14        -9.2452   -0.1180   53.8995 C.2     1  <0>        -0.2800
     15 C15        -8.1454   -0.4640   53.1759 C.2     1  <0>        -0.0300
     16 C16        -7.3930    0.6122   52.7426 C.2     1  <0>        -0.1200
     17 C17        -7.8879    1.8137   53.1172 C.2     1  <0>        -0.1900
     18 C18        -7.2522    3.1468   52.7702 C.3     1  <0>        -0.0500
     19 C19        -5.8091    2.9021   52.3218 C.3     1  <0>        -0.1200
     20 C20        -5.7978    1.8007   51.2577 C.3     1  <0>        -0.1200
     21 C21        -6.1212    0.4593   51.9182 C.3     1  <0>        -0.0600
     22 S22        -9.3239    1.6319   54.0231 S.3     1  <0>         0.2000
     23 C23       -11.2929   -1.9942   56.5780 C.3     1  <0>         0.0600
     24 C24       -10.4753   -2.4342   57.8146 C.3     1  <0>         0.0800
     25 H25       -11.1171   -2.4864   58.6940 H       1  <0>         0.1000
     26 O26        -9.8565   -3.7000   57.5762 O.3     1  <0>        -0.5400
     27 H27       -11.1594    0.5238   58.6440 H       1  <0>         0.1100
     28 H28       -11.6357   -1.0308   59.3684 H       1  <0>         0.1100
     29 H29       -11.0615    0.2962   60.4066 H       1  <0>         0.1600
     30 H30        -8.8353    1.1580   58.5863 H       1  <0>         0.1200
     31 H31        -8.7660    0.9536   60.3531 H       1  <0>         0.1300
     32 H32       -10.3043    0.4860   57.2025 H       1  <0>         0.1000
     33 H33        -8.7303    0.0588   56.4632 H       1  <0>         0.1200
     34 H34        -7.8832   -1.4892   52.9597 H       1  <0>         0.1500
     35 H35        -7.8110    3.6189   51.9621 H       1  <0>         0.0900
     36 H36        -7.2576    3.7936   53.6475 H       1  <0>         0.0800
     37 H37        -5.3972    3.8195   51.9015 H       1  <0>         0.0700
     38 H38        -5.2096    2.5894   53.1767 H       1  <0>         0.0700
     39 H39        -6.5460    2.0221   50.4966 H       1  <0>         0.0700
     40 H40        -4.8117    1.7506   50.7961 H       1  <0>         0.0700
     41 H41        -5.2972    0.1638   52.5678 H       1  <0>         0.0800
     42 H42        -6.2735   -0.2989   51.1501 H       1  <0>         0.0800
     43 H43       -12.1789   -1.4387   56.8851 H       1  <0>         0.1000
     44 H44       -11.5750   -2.8619   55.9816 H       1  <0>         0.1000
     45 H45        -9.3053   -3.7250   56.7820 H       1  <0>         0.4000
@<TRIPOS>BOND
     1     1     2    1
     2     1    27    1
     3     1    28    1
     4     1    29    1
     5     2     3    1
     6     2     4    1
     7     2     8    1
     8     4     5    1
     9     4    30    1
    10     4    31    1
    11     5     6   ar
    12     5     7   ar
    13     8     9    1
    14     8    24    1
    15     8    10    1
    16    10    11    1
    17    10    32    1
    18    10    33    1
    19    11    12   am
    20    11    23    1
    21    12    13    2
    22    12    14    1
    23    14    22    1
    24    14    15    2
    25    15    16    1
    26    15    34    1
    27    16    21    1
    28    16    17    2
    29    17    18    1
    30    17    22    1
    31    18    19    1
    32    18    35    1
    33    18    36    1
    34    19    20    1
    35    19    37    1
    36    19    38    1
    37    20    21    1
    38    20    39    1
    39    20    40    1
    40    21    41    1
    41    21    42    1
    42    23    24    1
    43    23    43    1
    44    23    44    1
    45    24    25    1
    46    24    26    1
    47    26    45    1
@<TRIPOS>SUBSTRUCTURE
     1 <0>         1 TEMP              0 ****  ****    0 ROOT


##########                                Name:    ZINC000434204837
##########                DOCK_Rotatable_Bonds:                   7
##########                         Heavy_Atoms:                  29
##########                    Molecular_Weight:             406.511
##########                DOCK_Rotatable_Bonds:                   7
##########                       Formal_Charge:          -0.0200002
##########                     HBond_Acceptors:                   8
##########                        HBond_Donors:                   0
##########                         Heavy_Atoms:                  29
##########                          Grid_Score:          -29.621746
##########                     Grid_vdw_energy:          -29.727545
##########                      Grid_es_energy:            0.105799
##########           Internal_energy_repulsive:           13.098936

@<TRIPOS>MOLECULE
ZINC000434204837
 51 54 1 0 0
SMALL
USER_CHARGES


@<TRIPOS>ATOM
      1 C1        -15.9492    0.5563   52.8113 C.3     1  ZINC000434204837   -0.1300
      2 C2        -14.8785    0.1394   51.8360 C.ar    1  ZINC000434204837   -0.0700
      3 C3        -15.0957    0.2637   50.4768 C.ar    1  ZINC000434204837   -0.1200
      4 C4        -14.1134   -0.1188   49.5821 C.ar    1  ZINC000434204837   -0.1100
      5 C5        -12.9143   -0.6250   50.0470 C.ar    1  ZINC000434204837   -0.1300
      6 C6        -12.6968   -0.7484   51.4067 C.ar    1  ZINC000434204837   -0.0900
      7 C7        -13.6770   -0.3620   52.3013 C.ar    1  ZINC000434204837   -0.1000
      8 C8        -13.4400   -0.4966   53.7834 C.3     1  ZINC000434204837    0.0100
      9 C9        -11.9580   -0.5386   54.0533 C.2     1  ZINC000434204837    0.2000
     10 N10       -11.1717    0.4909   54.2565 N.2     1  ZINC000434204837   -0.4600
     11 C11        -9.9447   -0.0237   54.4527 C.2     1  ZINC000434204837    0.1700
     12 C12        -8.6846    0.7552   54.7291 C.3     1  ZINC000434204837   -0.0300
     13 S13        -8.6088    1.1756   56.4880 S.3     1  ZINC000434204837    0.0900
     14 C14        -7.0654    2.0246   56.5334 C.2     1  ZINC000434204837    0.2100
     15 N15        -6.4090    2.5100   55.5017 N.2     1  ZINC000434204837   -0.3300
     16 N16        -5.3183    3.0690   55.8848 N.2     1  ZINC000434204837   -0.0200
     17 N17        -5.1959    2.9853   57.1652 N.2     1  ZINC000434204837   -0.0700
     18 N18        -6.3319    2.3063   57.6396 N.pl3   1  ZINC000434204837   -0.3100
     19 C19        -6.6373    1.9827   58.9693 C.ar    1  ZINC000434204837    0.1100
     20 C20        -6.9259    2.9889   59.8813 C.ar    1  ZINC000434204837   -0.1100
     21 C21        -7.2268    2.6671   61.1905 C.ar    1  ZINC000434204837   -0.0900
     22 C22        -7.2404    1.3443   61.5930 C.ar    1  ZINC000434204837   -0.0600
     23 C23        -7.5691    0.9965   63.0220 C.3     1  ZINC000434204837   -0.0600
     24 C24        -6.4901    1.5644   63.9463 C.3     1  ZINC000434204837   -0.1500
     25 C25        -8.9265    1.5968   63.3936 C.3     1  ZINC000434204837   -0.1500
     26 C26        -6.9533    0.3399   60.6869 C.ar    1  ZINC000434204837   -0.1000
     27 C27        -6.6573    0.6553   59.3752 C.ar    1  ZINC000434204837   -0.0900
     28 N28       -10.0455   -1.3160   54.3604 N.2     1  ZINC000434204837   -0.3600
     29 O29       -11.1949   -1.6326   54.1370 O.3     1  ZINC000434204837    0.0900
     30 H30       -15.8184    1.6078   53.0669 H       1  ZINC000434204837    0.0800
     31 H31       -16.9299    0.4120   52.3578 H       1  ZINC000434204837    0.0700
     32 H32       -15.8738   -0.0493   53.7144 H       1  ZINC000434204837    0.0700
     33 H33       -16.0326    0.6592   50.1135 H       1  ZINC000434204837    0.1300
     34 H34       -14.2833   -0.0223   48.5199 H       1  ZINC000434204837    0.1200
     35 H35       -12.1472   -0.9243   49.3481 H       1  ZINC000434204837    0.1300
     36 H36       -11.7599   -1.1442   51.7700 H       1  ZINC000434204837    0.1300
     37 H37       -13.8795    0.3563   54.3006 H       1  ZINC000434204837    0.1200
     38 H38       -13.9010   -1.4165   54.1430 H       1  ZINC000434204837    0.1200
     39 H39        -7.8177    0.1505   54.4624 H       1  ZINC000434204837    0.1300
     40 H40        -8.6856    1.6700   54.1365 H       1  ZINC000434204837    0.1400
     41 H41        -6.9148    4.0223   59.5676 H       1  ZINC000434204837    0.1400
     42 H42        -7.4514    3.4493   61.9003 H       1  ZINC000434204837    0.1400
     43 H43        -7.6086   -0.0871   63.1324 H       1  ZINC000434204837    0.0800
     44 H44        -6.4507    2.6481   63.8359 H       1  ZINC000434204837    0.0600
     45 H45        -6.7279    1.3128   64.9799 H       1  ZINC000434204837    0.0600
     46 H46        -5.5230    1.1367   63.6815 H       1  ZINC000434204837    0.0600
     47 H47        -9.6952    1.1922   62.7352 H       1  ZINC000434204837    0.0600
     48 H48        -9.1643    1.3452   64.4272 H       1  ZINC000434204837    0.0600
     49 H49        -8.8870    2.6804   63.2833 H       1  ZINC000434204837    0.0600
     50 H50        -6.9643   -0.6924   61.0044 H       1  ZINC000434204837    0.1400
     51 H51        -6.4332   -0.1296   58.6679 H       1  ZINC000434204837    0.1400
@<TRIPOS>BOND
     1     1     2    1
     2     1    30    1
     3     1    31    1
     4     1    32    1
     5     2     7   ar
     6     2     3   ar
     7     3     4   ar
     8     3    33    1
     9     4     5   ar
    10     4    34    1
    11     5     6   ar
    12     5    35    1
    13     6     7   ar
    14     6    36    1
    15     7     8    1
    16     8     9    1
    17     8    37    1
    18     8    38    1
    19     9    29    1
    20     9    10    2
    21    10    11    1
    22    11    12    1
    23    11    28    2
    24    12    13    1
    25    12    39    1
    26    12    40    1
    27    13    14    1
    28    14    18    1
    29    14    15    2
    30    15    16    1
    31    16    17    2
    32    17    18    1
    33    18    19    1
    34    19    27   ar
    35    19    20   ar
    36    20    21   ar
    37    20    41    1
    38    21    22   ar
    39    21    42    1
    40    22    23    1
    41    22    26   ar
    42    23    24    1
    43    23    25    1
    44    23    43    1
    45    24    44    1
    46    24    45    1
    47    24    46    1
    48    25    47    1
    49    25    48    1
    50    25    49    1
    51    26    27   ar
    52    26    50    1
    53    27    51    1
    54    28    29    1
@<TRIPOS>SUBSTRUCTURE
     1 ZINC000434204837        1 TEMP              0 ****  ****    0 ROOT


##########                                Name:    ZINC000051488227
##########                DOCK_Rotatable_Bonds:                   8
##########                         Heavy_Atoms:                  30
##########                    Molecular_Weight:             403.478
##########                DOCK_Rotatable_Bonds:                   8
##########                       Formal_Charge:           0.0199996
##########                     HBond_Acceptors:                   5
##########                        HBond_Donors:                   0
##########                         Heavy_Atoms:                  30
##########                          Grid_Score:          -29.571257
##########                     Grid_vdw_energy:          -28.781311
##########                      Grid_es_energy:           -0.789946
##########           Internal_energy_repulsive:           22.854845

@<TRIPOS>MOLECULE
ZINC000051488227
 55 58 1 0 0
SMALL
USER_CHARGES


@<TRIPOS>ATOM
      1 O1         -7.6715    0.0842   53.4603 O.2     1  ZINC000051488227   -0.5000
      2 C2         -7.9359    1.2460   53.6611 C.2     1  ZINC000051488227    0.4800
      3 O3         -9.2157    1.6311   53.7862 O.3     1  ZINC000051488227   -0.3400
      4 C4        -10.2339    0.6280   53.5305 C.3     1  ZINC000051488227    0.1100
      5 C5        -10.5264   -0.1262   54.8020 C.ar    1  ZINC000051488227   -0.1400
      6 C6        -10.8606    0.5639   55.9525 C.ar    1  ZINC000051488227   -0.0500
      7 C7        -11.1291   -0.1251   57.1194 C.ar    1  ZINC000051488227   -0.1500
      8 C8        -11.0637   -1.5108   57.1359 C.ar    1  ZINC000051488227    0.1500
      9 O9        -11.3280   -2.1910   58.2824 O.3     1  ZINC000051488227   -0.3100
     10 C10       -12.5683   -1.9082   58.9333 C.3     1  ZINC000051488227    0.1100
     11 C11       -13.7090   -2.2347   58.0040 C.ar    1  ZINC000051488227    0.1200
     12 C12       -14.2597   -1.2374   57.2222 C.ar    1  ZINC000051488227   -0.1500
     13 C13       -15.3087   -1.5484   56.3701 C.ar    1  ZINC000051488227   -0.0700
     14 C14       -15.7659   -2.8566   56.3368 C.ar    1  ZINC000051488227   -0.1700
     15 C15       -15.1654   -3.8009   57.1483 C.ar    1  ZINC000051488227    0.1100
     16 N16       -14.1664   -3.4701   57.9427 N.ar    1  ZINC000051488227   -0.4800
     17 C17       -10.7288   -2.2010   55.9800 C.ar    1  ZINC000051488227   -0.2100
     18 C18       -10.4658   -1.5074   54.8146 C.ar    1  ZINC000051488227   -0.0500
     19 C19        -6.8286    2.2615   53.7774 C.3     1  ZINC000051488227    0.0000
     20 C20        -6.4090    2.3869   55.2194 C.ar    1  ZINC000051488227   -0.0900
     21 C21        -7.1465    1.7662   56.2102 C.ar    1  ZINC000051488227   -0.1100
     22 C22        -6.7616    1.8811   57.5329 C.ar    1  ZINC000051488227   -0.1200
     23 C23        -5.6389    2.6163   57.8648 C.ar    1  ZINC000051488227   -0.1100
     24 C24        -4.9009    3.2361   56.8738 C.ar    1  ZINC000051488227   -0.1200
     25 C25        -5.2833    3.1177   55.5507 C.ar    1  ZINC000051488227   -0.1000
     26 C26        -5.6327    1.8148   52.9309 C.3     1  ZINC000051488227   -0.1400
     27 C27        -6.0494    1.7659   51.4585 C.3     1  ZINC000051488227    0.0600
     28 O28        -6.5272    3.0514   51.0571 O.3     1  ZINC000051488227   -0.3800
     29 C29        -7.6740    3.5002   51.7823 C.3     1  ZINC000051488227    0.0500
     30 C30        -7.3224    3.6189   53.2676 C.3     1  ZINC000051488227   -0.1400
     31 H31       -11.1436    1.1150   53.1794 H       1  ZINC000051488227    0.0800
     32 H32        -9.8767   -0.0665   52.7701 H       1  ZINC000051488227    0.0800
     33 H33       -10.9112    1.6427   55.9391 H       1  ZINC000051488227    0.1300
     34 H34       -11.3894    0.4145   58.0179 H       1  ZINC000051488227    0.1400
     35 H35       -12.6509   -2.5129   59.8364 H       1  ZINC000051488227    0.0900
     36 H36       -12.6068   -0.8517   59.1986 H       1  ZINC000051488227    0.0900
     37 H37       -13.8783   -0.2283   57.2742 H       1  ZINC000051488227    0.1400
     38 H38       -15.7589   -0.7894   55.7476 H       1  ZINC000051488227    0.1400
     39 H39       -16.5814   -3.1345   55.6854 H       1  ZINC000051488227    0.1400
     40 H40       -15.5160   -4.8223   57.1284 H       1  ZINC000051488227    0.1600
     41 H41       -10.6769   -3.2796   55.9905 H       1  ZINC000051488227    0.1300
     42 H42       -10.2052   -2.0443   53.9143 H       1  ZINC000051488227    0.1300
     43 H43        -8.0236    1.1919   55.9510 H       1  ZINC000051488227    0.1300
     44 H44        -7.3382    1.3969   58.3071 H       1  ZINC000051488227    0.1300
     45 H45        -5.3386    2.7066   58.8983 H       1  ZINC000051488227    0.1200
     46 H46        -4.0240    3.8107   57.1331 H       1  ZINC000051488227    0.1200
     47 H47        -4.7067    3.6020   54.7765 H       1  ZINC000051488227    0.1300
     48 H48        -4.8139    2.5237   53.0542 H       1  ZINC000051488227    0.0900
     49 H49        -5.3094    0.8243   53.2510 H       1  ZINC000051488227    0.0900
     50 H50        -5.1907    1.4899   50.8467 H       1  ZINC000051488227    0.1000
     51 H51        -6.8406    1.0273   51.3291 H       1  ZINC000051488227    0.0500
     52 H52        -7.9854    4.4737   51.4036 H       1  ZINC000051488227    0.1000
     53 H53        -8.4863    2.7844   51.6571 H       1  ZINC000051488227    0.0700
     54 H54        -8.2075    3.9186   53.8286 H       1  ZINC000051488227    0.0900
     55 H55        -6.5378    4.3642   53.3978 H       1  ZINC000051488227    0.0900
@<TRIPOS>BOND
     1     1     2    2
     2     2     3    1
     3     2    19    1
     4     3     4    1
     5     4     5    1
     6     4    31    1
     7     4    32    1
     8     5    18   ar
     9     5     6   ar
    10     6     7   ar
    11     6    33    1
    12     7     8   ar
    13     7    34    1
    14     8     9    1
    15     8    17   ar
    16     9    10    1
    17    10    11    1
    18    10    35    1
    19    10    36    1
    20    11    16   ar
    21    11    12   ar
    22    12    13   ar
    23    12    37    1
    24    13    14   ar
    25    13    38    1
    26    14    15   ar
    27    14    39    1
    28    15    16   ar
    29    15    40    1
    30    17    18   ar
    31    17    41    1
    32    18    42    1
    33    19    30    1
    34    19    20    1
    35    19    26    1
    36    20    25   ar
    37    20    21   ar
    38    21    22   ar
    39    21    43    1
    40    22    23   ar
    41    22    44    1
    42    23    24   ar
    43    23    45    1
    44    24    25   ar
    45    24    46    1
    46    25    47    1
    47    26    27    1
    48    26    48    1
    49    26    49    1
    50    27    28    1
    51    27    50    1
    52    27    51    1
    53    28    29    1
    54    29    30    1
    55    29    52    1
    56    29    53    1
    57    30    54    1
    58    30    55    1
@<TRIPOS>SUBSTRUCTURE
     1 ZINC000051488227        1 TEMP              0 ****  ****    0 ROOT


##########                                Name:    ZINC000521663393
##########                DOCK_Rotatable_Bonds:                   5
##########                         Heavy_Atoms:                  27
##########                    Molecular_Weight:              386.49
##########                DOCK_Rotatable_Bonds:                   5
##########                       Formal_Charge:               -0.02
##########                     HBond_Acceptors:                   6
##########                        HBond_Donors:                   1
##########                         Heavy_Atoms:                  27
##########                          Grid_Score:          -29.568922
##########                     Grid_vdw_energy:          -27.298264
##########                      Grid_es_energy:           -2.270658
##########           Internal_energy_repulsive:           17.331560

@<TRIPOS>MOLECULE
ZINC000521663393
 50 53 1 0 0
SMALL
USER_CHARGES


@<TRIPOS>ATOM
      1 C1         -4.8545    2.2188   51.0207 C.3     1  ZINC000521663393   -0.1500
      2 C2         -5.3641    1.3838   52.1973 C.3     1  ZINC000521663393    0.0800
      3 H3         -4.5310    0.9498   52.7502 H       1  ZINC000521663393    0.0900
      4 O4         -6.2629    0.3580   51.7423 O.3     1  ZINC000521663393   -0.2900
      5 C5         -7.2235    0.1531   52.6849 C.ar    1  ZINC000521663393    0.1400
      6 C6         -8.0739   -0.9332   52.8707 C.ar    1  ZINC000521663393   -0.1800
      7 C7         -8.9944   -0.9276   53.9014 C.ar    1  ZINC000521663393    0.1400
      8 F8         -9.8166   -1.9855   54.0746 F       1  ZINC000521663393   -0.1300
      9 C9         -9.0777    0.1575   54.7576 C.ar    1  ZINC000521663393   -0.1800
     10 C10        -8.2319    1.2381   54.5807 C.ar    1  ZINC000521663393   -0.0200
     11 C11        -7.3120    1.2321   53.5559 C.ar    1  ZINC000521663393   -0.2000
     12 C12        -6.2555    2.2376   53.1298 C.3     1  ZINC000521663393    0.1700
     13 H13        -6.7052    3.0684   52.5863 H       1  ZINC000521663393    0.1200
     14 N14        -5.4968    2.7213   54.2860 N.am    1  ZINC000521663393   -0.7200
     15 C15        -5.9653    3.7532   55.0156 C.2     1  ZINC000521663393    0.5300
     16 O16        -7.0157    4.2802   54.7160 O.2     1  ZINC000521663393   -0.5000
     17 C17        -5.1839    4.2519   56.2038 C.3     1  ZINC000521663393    0.1200
     18 H18        -5.3193    5.3290   56.3016 H       1  ZINC000521663393    0.0700
     19 C19        -5.6779    3.5681   57.4527 C.ar    1  ZINC000521663393   -0.0900
     20 C20        -5.9148    2.2062   57.4474 C.ar    1  ZINC000521663393   -0.0900
     21 C21        -6.3678    1.5790   58.5929 C.ar    1  ZINC000521663393   -0.1200
     22 C22        -6.5836    2.3136   59.7438 C.ar    1  ZINC000521663393   -0.1100
     23 C23        -6.3458    3.6753   59.7494 C.ar    1  ZINC000521663393   -0.1200
     24 C24        -5.8887    4.3018   58.6051 C.ar    1  ZINC000521663393   -0.1100
     25 N25        -3.7584    3.9528   56.0130 N.3     1  ZINC000521663393   -0.5300
     26 C26        -2.9922    4.2535   57.2245 C.3     1  ZINC000521663393    0.0500
     27 C27        -1.6355    3.5427   57.1723 C.3     1  ZINC000521663393   -0.0700
     28 S28        -0.7060    4.1772   55.7434 S.3     1  ZINC000521663393   -0.2700
     29 C29        -1.9136    3.9890   54.3962 C.3     1  ZINC000521663393   -0.0700
     30 C30        -3.2320    4.6384   54.8306 C.3     1  ZINC000521663393    0.0600
     31 H31        -4.2316    3.0313   51.3947 H       1  ZINC000521663393    0.0800
     32 H32        -4.2668    1.5873   50.3546 H       1  ZINC000521663393    0.0800
     33 H33        -5.7024    2.6327   50.4748 H       1  ZINC000521663393    0.0700
     34 H34        -8.0143   -1.7831   52.2070 H       1  ZINC000521663393    0.1400
     35 H35        -9.8003    0.1605   55.5603 H       1  ZINC000521663393    0.1400
     36 H36        -8.2932    2.0863   55.2463 H       1  ZINC000521663393    0.1300
     37 H37        -4.6573    2.2991   54.5263 H       1  ZINC000521663393    0.4000
     38 H38        -5.7462    1.6323   56.5482 H       1  ZINC000521663393    0.1300
     39 H39        -6.5536    0.5151   58.5885 H       1  ZINC000521663393    0.1300
     40 H40        -6.9382    1.8237   60.6386 H       1  ZINC000521663393    0.1200
     41 H41        -6.5147    4.2494   60.6485 H       1  ZINC000521663393    0.1300
     42 H42        -5.7029    5.3658   58.6094 H       1  ZINC000521663393    0.1200
     43 H43        -2.8348    5.3297   57.2957 H       1  ZINC000521663393    0.0500
     44 H44        -3.5470    3.9113   58.0982 H       1  ZINC000521663393    0.1000
     45 H45        -1.0810    3.7443   58.0887 H       1  ZINC000521663393    0.1100
     46 H46        -1.7887    2.4691   57.0622 H       1  ZINC000521663393    0.0900
     47 H47        -1.5407    4.4824   53.4986 H       1  ZINC000521663393    0.1100
     48 H48        -2.0757    2.9301   54.1950 H       1  ZINC000521663393    0.1000
     49 H49        -3.9556    4.5672   54.0185 H       1  ZINC000521663393    0.0800
     50 H50        -3.0579    5.6878   55.0680 H       1  ZINC000521663393    0.0500
@<TRIPOS>BOND
     1     1     2    1
     2     1    31    1
     3     1    32    1
     4     1    33    1
     5     2     3    1
     6     2    12    1
     7     2     4    1
     8     4     5    1
     9     5    11   ar
    10     5     6   ar
    11     6     7   ar
    12     6    34    1
    13     7     8    1
    14     7     9   ar
    15     9    10   ar
    16     9    35    1
    17    10    11   ar
    18    10    36    1
    19    11    12    1
    20    12    13    1
    21    12    14    1
    22    14    15   am
    23    14    37    1
    24    15    16    2
    25    15    17    1
    26    17    18    1
    27    17    19    1
    28    17    25    1
    29    19    24   ar
    30    19    20   ar
    31    20    21   ar
    32    20    38    1
    33    21    22   ar
    34    21    39    1
    35    22    23   ar
    36    22    40    1
    37    23    24   ar
    38    23    41    1
    39    24    42    1
    40    25    30    1
    41    25    26    1
    42    26    27    1
    43    26    43    1
    44    26    44    1
    45    27    28    1
    46    27    45    1
    47    27    46    1
    48    28    29    1
    49    29    30    1
    50    29    47    1
    51    29    48    1
    52    30    49    1
    53    30    50    1
@<TRIPOS>SUBSTRUCTURE
     1 ZINC000521663393        1 TEMP              0 ****  ****    0 ROOT


##########                                Name:    ZINC000487792031
##########                DOCK_Rotatable_Bonds:                  12
##########                         Heavy_Atoms:                  29
##########                    Molecular_Weight:             414.569
##########                DOCK_Rotatable_Bonds:                  12
##########                       Formal_Charge:          -0.0100001
##########                     HBond_Acceptors:                   6
##########                        HBond_Donors:                   1
##########                         Heavy_Atoms:                  29
##########                          Grid_Score:          -29.564720
##########                     Grid_vdw_energy:          -28.923544
##########                      Grid_es_energy:           -0.641176
##########           Internal_energy_repulsive:           17.454258

@<TRIPOS>MOLECULE
ZINC000487792031
 59 60 1 0 0
SMALL
USER_CHARGES


@<TRIPOS>ATOM
      1 C1        -16.7351    5.3097   50.3564 C.2     1  ZINC000487792031   -0.1900
      2 C2        -15.6276    4.7389   49.9517 C.2     1  ZINC000487792031   -0.1500
      3 C3        -14.7223    4.0603   50.9471 C.3     1  ZINC000487792031   -0.0900
      4 C4        -13.2742    4.1465   50.4610 C.3     1  ZINC000487792031   -0.0900
      5 C5        -12.3550    3.4575   51.4717 C.3     1  ZINC000487792031   -0.0700
      6 H6        -12.5866    3.8141   52.4754 H       1  ZINC000487792031    0.1100
      7 C7        -12.5657    1.9667   51.4073 C.2     1  ZINC000487792031    0.5200
      8 O8        -12.9037    1.4465   50.3651 O.2     1  ZINC000487792031   -0.5300
      9 N9        -12.3787    1.2114   52.5078 N.am    1  ZINC000487792031   -0.7200
     10 C10       -12.5852   -0.2375   52.4456 C.3     1  ZINC000487792031    0.1500
     11 C11       -12.0527   -0.8752   53.7029 C.ar    1  ZINC000487792031   -0.0500
     12 C12       -10.7465   -1.3253   53.7499 C.ar    1  ZINC000487792031   -0.1200
     13 C13       -10.2581   -1.9103   54.9033 C.ar    1  ZINC000487792031   -0.0200
     14 C14       -11.0757   -2.0447   56.0098 C.ar    1  ZINC000487792031   -0.6700
     15 S15       -10.4533   -2.7908   57.4797 S.o2    1  ZINC000487792031    2.6900
     16 O16       -11.2933   -3.9043   57.7512 O.2     1  ZINC000487792031   -0.9500
     17 O17        -9.0469   -2.9015   57.3090 O.2     1  ZINC000487792031   -0.9500
     18 N18       -10.6911   -1.7136   58.7147 N.am    1  ZINC000487792031   -1.0000
     19 C19       -10.0716   -0.3872   58.6593 C.3     1  ZINC000487792031    0.1200
     20 C20        -8.7298   -0.4199   59.3938 C.3     1  ZINC000487792031   -0.1800
     21 C21       -11.5209   -2.0872   59.8628 C.3     1  ZINC000487792031    0.1100
     22 C22       -12.9831   -1.7466   59.5675 C.3     1  ZINC000487792031   -0.1800
     23 C23       -12.3815   -1.5934   55.9632 C.ar    1  ZINC000487792031   -0.0200
     24 C24       -12.8688   -1.0050   54.8111 C.ar    1  ZINC000487792031   -0.1200
     25 C25       -10.9192    3.7765   51.1439 C.ar    1  ZINC000487792031   -0.0800
     26 C26       -10.5083    3.8376   49.8254 C.ar    1  ZINC000487792031   -0.1100
     27 C27        -9.1911    4.1303   49.5248 C.ar    1  ZINC000487792031   -0.1100
     28 C28        -8.2850    4.3622   50.5427 C.ar    1  ZINC000487792031   -0.1200
     29 C29        -8.6961    4.3021   51.8611 C.ar    1  ZINC000487792031   -0.1200
     30 C30       -10.0142    4.0136   52.1616 C.ar    1  ZINC000487792031   -0.1100
     31 H31       -17.3839    5.7961   49.6430 H       1  ZINC000487792031    0.1000
     32 H32       -17.0015    5.2901   51.4028 H       1  ZINC000487792031    0.1000
     33 H33       -15.3633    4.7547   48.9046 H       1  ZINC000487792031    0.1100
     34 H34       -14.8109    4.5544   51.9146 H       1  ZINC000487792031    0.0700
     35 H35       -15.0106    3.0137   51.0460 H       1  ZINC000487792031    0.0700
     36 H36       -13.1856    3.6524   49.4935 H       1  ZINC000487792031    0.0800
     37 H37       -12.9858    5.1931   50.3623 H       1  ZINC000487792031    0.0700
     38 H38       -12.1073    1.6274   53.3410 H       1  ZINC000487792031    0.4000
     39 H39       -13.6506   -0.4491   52.3540 H       1  ZINC000487792031    0.0800
     40 H40       -12.0587   -0.6428   51.5816 H       1  ZINC000487792031    0.0800
     41 H41       -10.1077   -1.2202   52.8855 H       1  ZINC000487792031    0.1400
     42 H42        -9.2378   -2.2624   54.9398 H       1  ZINC000487792031    0.1400
     43 H43        -9.9095   -0.1050   57.6190 H       1  ZINC000487792031    0.0800
     44 H44       -10.7286    0.3408   59.1351 H       1  ZINC000487792031    0.0800
     45 H45        -8.8918   -0.7021   60.4341 H       1  ZINC000487792031    0.0600
     46 H46        -8.0728   -1.1479   58.9180 H       1  ZINC000487792031    0.0600
     47 H47        -8.2689    0.5669   59.3526 H       1  ZINC000487792031    0.0700
     48 H48       -11.4272   -3.1576   60.0459 H       1  ZINC000487792031    0.0900
     49 H49       -11.1906   -1.5375   60.7441 H       1  ZINC000487792031    0.0900
     50 H50       -13.0768   -0.6761   59.3844 H       1  ZINC000487792031    0.0600
     51 H51       -13.3134   -2.2962   58.6862 H       1  ZINC000487792031    0.0600
     52 H52       -13.6004   -2.0245   60.4217 H       1  ZINC000487792031    0.0700
     53 H53       -13.0202   -1.6982   56.8278 H       1  ZINC000487792031    0.1400
     54 H54       -13.8890   -0.6524   54.7748 H       1  ZINC000487792031    0.1400
     55 H55       -11.2163    3.6563   49.0303 H       1  ZINC000487792031    0.1200
     56 H56        -8.8700    4.1773   48.4948 H       1  ZINC000487792031    0.1200
     57 H57        -7.2558    4.5903   50.3078 H       1  ZINC000487792031    0.1200
     58 H58        -7.9881    4.4830   52.6563 H       1  ZINC000487792031    0.1200
     59 H59       -10.3354    3.9666   53.1917 H       1  ZINC000487792031    0.1200
@<TRIPOS>BOND
     1     1     2    2
     2     1    31    1
     3     1    32    1
     4     2     3    1
     5     2    33    1
     6     3     4    1
     7     3    34    1
     8     3    35    1
     9     4     5    1
    10     4    36    1
    11     4    37    1
    12     5     6    1
    13     5     7    1
    14     5    25    1
    15     7     8    2
    16     7     9   am
    17     9    10    1
    18     9    38    1
    19    10    11    1
    20    10    39    1
    21    10    40    1
    22    11    24   ar
    23    11    12   ar
    24    12    13   ar
    25    12    41    1
    26    13    14   ar
    27    13    42    1
    28    14    15    1
    29    14    23   ar
    30    15    16    2
    31    15    17    2
    32    15    18   am
    33    18    19    1
    34    18    21    1
    35    19    20    1
    36    19    43    1
    37    19    44    1
    38    20    45    1
    39    20    46    1
    40    20    47    1
    41    21    22    1
    42    21    48    1
    43    21    49    1
    44    22    50    1
    45    22    51    1
    46    22    52    1
    47    23    24   ar
    48    23    53    1
    49    24    54    1
    50    25    30   ar
    51    25    26   ar
    52    26    27   ar
    53    26    55    1
    54    27    28   ar
    55    27    56    1
    56    28    29   ar
    57    28    57    1
    58    29    30   ar
    59    29    58    1
    60    30    59    1
@<TRIPOS>SUBSTRUCTURE
     1 ZINC000487792031        1 TEMP              0 ****  ****    0 ROOT


##########                                Name:    ZINC001083519372
##########                DOCK_Rotatable_Bonds:                   7
##########                         Heavy_Atoms:                  27
##########                    Molecular_Weight:             370.411
##########                DOCK_Rotatable_Bonds:                   7
##########                       Formal_Charge:           0.0399996
##########                     HBond_Acceptors:                   9
##########                        HBond_Donors:                   2
##########                         Heavy_Atoms:                  27
##########                          Grid_Score:          -29.555643
##########                     Grid_vdw_energy:          -28.670914
##########                      Grid_es_energy:           -0.884730
##########           Internal_energy_repulsive:            7.308019

@<TRIPOS>MOLECULE
ZINC001083519372
 49 52 1 0 0
SMALL
USER_CHARGES


@<TRIPOS>ATOM
      1 C1         -1.1421    2.8279   57.3794 C.3     1  ZINC001083519372   -0.1500
      2 C2         -1.7047    4.1840   56.9491 C.3     1  ZINC001083519372   -0.0100
      3 C3         -0.5956    5.2367   57.0034 C.3     1  ZINC001083519372   -0.1500
      4 C4         -2.2344    4.0846   55.5418 C.2     1  ZINC001083519372   -0.0100
      5 C5         -3.5250    4.1168   55.1708 C.2     1  ZINC001083519372   -0.0100
      6 C6         -4.7111    4.2596   56.0895 C.3     1  ZINC001083519372    0.1300
      7 N7         -5.1556    2.9291   56.5255 N.3     1  ZINC001083519372   -0.5000
      8 C8         -5.1295    2.8180   58.0064 C.3     1  ZINC001083519372    0.0300
      9 C9         -6.0845    1.6314   58.2898 C.3     1  ZINC001083519372    0.1500
     10 H10        -5.5730    0.6804   58.1412 H       1  ZINC001083519372    0.1200
     11 N11        -6.6303    1.7179   59.6466 N.am    1  ZINC001083519372   -0.6900
     12 C12        -7.1231    0.6161   60.2462 C.2     1  ZINC001083519372    0.5600
     13 O13        -7.1134   -0.4501   59.6616 O.2     1  ZINC001083519372   -0.5100
     14 C14        -7.6743    0.7034   61.6116 C.2     1  ZINC001083519372    0.1400
     15 C15        -6.9016    0.3884   62.6967 C.2     1  ZINC001083519372   -0.1500
     16 C16        -7.4541    0.4813   63.9811 C.2     1  ZINC001083519372    0.1800
     17 N17        -8.6973    0.8655   64.1440 N.2     1  ZINC001083519372   -0.4400
     18 C18        -9.4682    1.1775   63.0971 C.2     1  ZINC001083519372    0.2500
     19 C19       -10.7884    1.6024   62.9947 C.2     1  ZINC001083519372   -0.2500
     20 C20       -11.0705    1.7779   61.6501 C.2     1  ZINC001083519372    0.1000
     21 N21        -9.9998    1.4837   60.9452 N.2     1  ZINC001083519372   -0.3100
     22 N22        -8.9732    1.1085   61.8184 N.pl3   1  ZINC001083519372   -0.3100
     23 C23        -7.1980    1.8243   57.2348 C.3     1  ZINC001083519372    0.0900
     24 H24        -7.5102    0.8600   56.8336 H       1  ZINC001083519372    0.0800
     25 O25        -8.3142    2.5059   57.8106 O.3     1  ZINC001083519372   -0.5600
     26 C26        -6.5585    2.6821   56.1273 C.3     1  ZINC001083519372    0.0100
     27 N27        -3.5678    3.9988   53.8319 N.2     1  ZINC001083519372   -0.4800
     28 C28        -2.3496    3.8966   53.3824 C.2     1  ZINC001083519372    0.1700
     29 O29        -1.5020    3.9525   54.4184 O.3     1  ZINC001083519372   -0.2000
     30 H30        -1.9322    2.0779   57.3406 H       1  ZINC001083519372    0.0600
     31 H31        -0.3344    2.5396   56.7066 H       1  ZINC001083519372    0.0600
     32 H32        -0.7591    2.8998   58.3973 H       1  ZINC001083519372    0.0700
     33 H33        -2.5124    4.4723   57.6218 H       1  ZINC001083519372    0.1000
     34 H34         0.2121    4.9485   56.3307 H       1  ZINC001083519372    0.0600
     35 H35        -0.9965    6.2029   56.6969 H       1  ZINC001083519372    0.0600
     36 H36        -0.2125    5.3086   58.0214 H       1  ZINC001083519372    0.0700
     37 H37        -4.4274    4.8512   56.9599 H       1  ZINC001083519372    0.0900
     38 H38        -5.5228    4.7584   55.5598 H       1  ZINC001083519372    0.0600
     39 H39        -4.1223    2.5935   58.3576 H       1  ZINC001083519372    0.1000
     40 H40        -5.5040    3.7319   58.4674 H       1  ZINC001083519372    0.0600
     41 H41        -6.6370    2.5682   60.1134 H       1  ZINC001083519372    0.4300
     42 H42        -5.8777    0.0714   62.5643 H       1  ZINC001083519372    0.1800
     43 H43        -6.8519    0.2343   64.8431 H       1  ZINC001083519372    0.1900
     44 H44       -11.4708    1.7658   63.8157 H       1  ZINC001083519372    0.1700
     45 H45       -12.0174    2.1038   61.2457 H       1  ZINC001083519372    0.2000
     46 H46        -8.0768    3.1234   58.5159 H       1  ZINC001083519372    0.3900
     47 H47        -7.0910    3.6289   56.0369 H       1  ZINC001083519372    0.0700
     48 H48        -6.5864    2.1454   55.1791 H       1  ZINC001083519372    0.0900
     49 H49        -2.0689    3.7888   52.3451 H       1  ZINC001083519372    0.2500
@<TRIPOS>BOND
     1     1     2    1
     2     1    30    1
     3     1    31    1
     4     1    32    1
     5     2     3    1
     6     2     4    1
     7     2    33    1
     8     3    34    1
     9     3    35    1
    10     3    36    1
    11     4    29    1
    12     4     5    2
    13     5     6    1
    14     5    27    1
    15     6     7    1
    16     6    37    1
    17     6    38    1
    18     7    26    1
    19     7     8    1
    20     8     9    1
    21     8    39    1
    22     8    40    1
    23     9    10    1
    24     9    11    1
    25     9    23    1
    26    11    12   am
    27    11    41    1
    28    12    13    2
    29    12    14    1
    30    14    22    1
    31    14    15    2
    32    15    16    1
    33    15    42    1
    34    16    17    2
    35    16    43    1
    36    17    18    1
    37    18    22    1
    38    18    19    2
    39    19    20    1
    40    19    44    1
    41    20    21    2
    42    20    45    1
    43    21    22    1
    44    23    24    1
    45    23    25    1
    46    23    26    1
    47    25    46    1
    48    26    47    1
    49    26    48    1
    50    27    28    2
    51    28    29    1
    52    28    49    1
@<TRIPOS>SUBSTRUCTURE
     1 ZINC001083519372        1 TEMP              0 ****  ****    0 ROOT


##########                                Name:    ZINC001310073555
##########                DOCK_Rotatable_Bonds:                  12
##########                         Heavy_Atoms:                  27
##########                    Molecular_Weight:             380.484
##########                DOCK_Rotatable_Bonds:                  12
##########                       Formal_Charge:          0.00999888
##########                     HBond_Acceptors:                   7
##########                        HBond_Donors:                   2
##########                         Heavy_Atoms:                  27
##########                          Grid_Score:          -29.554821
##########                     Grid_vdw_energy:          -29.813627
##########                      Grid_es_energy:            0.258807
##########           Internal_energy_repulsive:           55.680489

@<TRIPOS>MOLECULE
ZINC001310073555
 59 59 1 0 0
SMALL
USER_CHARGES


@<TRIPOS>ATOM
      1 C1        -10.7852   -3.5750   57.6479 C.3     1  ZINC001310073555   -0.1600
      2 C2        -10.2291   -2.2694   57.0761 C.3     1  ZINC001310073555   -0.1100
      3 C3        -10.9161   -1.0822   57.7540 C.3     1  ZINC001310073555   -0.0600
      4 C4        -10.6567   -1.1354   59.2609 C.3     1  ZINC001310073555   -0.1100
      5 C5        -11.0666    0.1948   59.8961 C.3     1  ZINC001310073555   -0.1600
      6 C6        -10.3564    0.2234   57.1858 C.3     1  ZINC001310073555    0.1600
      7 N7        -10.2346    0.1100   55.7303 N.am    1  ZINC001310073555   -0.7400
      8 C8         -9.1501    0.6083   55.1041 C.2     1  ZINC001310073555    0.7100
      9 O9         -8.2722    1.1507   55.7473 O.2     1  ZINC001310073555   -0.5700
     10 N10        -9.0387    0.5054   53.7649 N.am    1  ZINC001310073555   -0.6700
     11 C11        -7.9092    1.0244   53.1125 C.ar    1  ZINC001310073555    0.1000
     12 C12        -6.8987    0.1733   52.6923 C.ar    1  ZINC001310073555   -0.0400
     13 C13        -5.7864    0.6842   52.0500 C.ar    1  ZINC001310073555   -0.2200
     14 C14        -5.6788    2.0482   51.8240 C.ar    1  ZINC001310073555    0.1500
     15 O15        -4.5835    2.5476   51.1918 O.3     1  ZINC001310073555   -0.3200
     16 C16        -3.3260    2.3924   51.8526 C.3     1  ZINC001310073555    0.0300
     17 C17        -6.6879    2.9035   52.2418 C.ar    1  ZINC001310073555   -0.2300
     18 C18        -7.8053    2.3942   52.8816 C.ar    1  ZINC001310073555    0.1400
     19 O19        -8.7956    3.2310   53.2920 O.3     1  ZINC001310073555   -0.3100
     20 C20        -9.7615    3.6218   52.3141 C.3     1  ZINC001310073555    0.0300
     21 C21       -12.3996   -1.1468   57.4971 C.2     1  ZINC001310073555    0.4800
     22 O22       -12.8664   -0.6184   56.5158 O.2     1  ZINC001310073555   -0.5000
     23 O23       -13.2026   -1.7913   58.3582 O.3     1  ZINC001310073555   -0.3400
     24 C24       -14.6229   -1.7973   58.0569 C.3     1  ZINC001310073555    0.1200
     25 C25       -15.1357   -0.3575   57.9878 C.3     1  ZINC001310073555   -0.1800
     26 C26       -14.8558   -2.4869   56.7111 C.3     1  ZINC001310073555   -0.1400
     27 C27       -15.3739   -2.5540   59.1544 C.3     1  ZINC001310073555   -0.1800
     28 H28       -10.2956   -4.4208   57.1649 H       1  ZINC001310073555    0.0600
     29 H29       -10.5972   -3.6109   58.7210 H       1  ZINC001310073555    0.0500
     30 H30       -11.8586   -3.6237   57.4651 H       1  ZINC001310073555    0.0600
     31 H31        -9.1556   -2.2208   57.2587 H       1  ZINC001310073555    0.0800
     32 H32       -10.4170   -2.2336   56.0029 H       1  ZINC001310073555    0.0800
     33 H33       -11.2402   -1.9437   59.7017 H       1  ZINC001310073555    0.0800
     34 H34        -9.5964   -1.3126   59.4410 H       1  ZINC001310073555    0.0800
     35 H35       -10.4831    1.0030   59.4552 H       1  ZINC001310073555    0.0600
     36 H36       -12.1270    0.3720   59.7161 H       1  ZINC001310073555    0.0500
     37 H37       -10.8818    0.1570   60.9697 H       1  ZINC001310073555    0.0600
     38 H38       -11.0299    1.0446   57.4312 H       1  ZINC001310073555    0.0800
     39 H39        -9.3749    0.4167   57.6187 H       1  ZINC001310073555    0.0800
     40 H40       -10.9342   -0.3237   55.2173 H       1  ZINC001310073555    0.4000
     41 H41        -9.7390    0.0729   53.2517 H       1  ZINC001310073555    0.4100
     42 H42        -6.9803   -0.8893   52.8673 H       1  ZINC001310073555    0.1500
     43 H43        -4.9996    0.0201   51.7239 H       1  ZINC001310073555    0.1300
     44 H44        -3.3597    2.8935   52.8200 H       1  ZINC001310073555    0.0600
     45 H45        -3.1213    1.3320   51.9995 H       1  ZINC001310073555    0.0600
     46 H46        -2.5380    2.8335   51.2422 H       1  ZINC001310073555    0.1000
     47 H47        -6.6034    3.9656   52.0654 H       1  ZINC001310073555    0.1400
     48 H48       -10.4930    4.2876   52.7717 H       1  ZINC001310073555    0.1000
     49 H49        -9.2610    4.1394   51.4957 H       1  ZINC001310073555    0.0600
     50 H50       -10.2672    2.7364   51.9287 H       1  ZINC001310073555    0.0600
     51 H51       -14.6008    0.1816   57.2060 H       1  ZINC001310073555    0.0600
     52 H52       -16.2020   -0.3620   57.7616 H       1  ZINC001310073555    0.0700
     53 H53       -14.9698    0.1337   58.9466 H       1  ZINC001310073555    0.0800
     54 H54       -14.4905   -3.5126   56.7604 H       1  ZINC001310073555    0.0700
     55 H55       -15.9221   -2.4914   56.4849 H       1  ZINC001310073555    0.0800
     56 H56       -14.3209   -1.9478   55.9292 H       1  ZINC001310073555    0.0700
     57 H57       -15.2080   -2.0628   60.1132 H       1  ZINC001310073555    0.0800
     58 H58       -16.4401   -2.5586   58.9281 H       1  ZINC001310073555    0.0700
     59 H59       -15.0086   -3.5799   59.2036 H       1  ZINC001310073555    0.0600
@<TRIPOS>BOND
     1     1     2    1
     2     1    28    1
     3     1    29    1
     4     1    30    1
     5     2     3    1
     6     2    31    1
     7     2    32    1
     8     3     4    1
     9     3     6    1
    10     3    21    1
    11     4     5    1
    12     4    33    1
    13     4    34    1
    14     5    35    1
    15     5    36    1
    16     5    37    1
    17     6     7    1
    18     6    38    1
    19     6    39    1
    20     7     8   am
    21     7    40    1
    22     8     9    2
    23     8    10   am
    24    10    11    1
    25    10    41    1
    26    11    18   ar
    27    11    12   ar
    28    12    13   ar
    29    12    42    1
    30    13    14   ar
    31    13    43    1
    32    14    15    1
    33    14    17   ar
    34    15    16    1
    35    16    44    1
    36    16    45    1
    37    16    46    1
    38    17    18   ar
    39    17    47    1
    40    18    19    1
    41    19    20    1
    42    20    48    1
    43    20    49    1
    44    20    50    1
    45    21    22    2
    46    21    23    1
    47    23    24    1
    48    24    25    1
    49    24    26    1
    50    24    27    1
    51    25    51    1
    52    25    52    1
    53    25    53    1
    54    26    54    1
    55    26    55    1
    56    26    56    1
    57    27    57    1
    58    27    58    1
    59    27    59    1
@<TRIPOS>SUBSTRUCTURE
     1 ZINC001310073555        1 TEMP              0 ****  ****    0 ROOT


##########                                Name:    ZINC000572148596
##########                DOCK_Rotatable_Bonds:                   4
##########                         Heavy_Atoms:                  26
##########                    Molecular_Weight:             371.463
##########                DOCK_Rotatable_Bonds:                   4
##########                       Formal_Charge:          -0.0199999
##########                     HBond_Acceptors:                   8
##########                        HBond_Donors:                   0
##########                         Heavy_Atoms:                  26
##########                          Grid_Score:          -29.549179
##########                     Grid_vdw_energy:          -29.645983
##########                      Grid_es_energy:            0.096804
##########           Internal_energy_repulsive:            5.042907

@<TRIPOS>MOLECULE
ZINC000572148596
 47 50 1 0 0
SMALL
USER_CHARGES


@<TRIPOS>ATOM
      1 C1         -7.2583    3.8973   51.5374 C.3     1  ZINC000572148596   -0.1400
      2 C2         -6.2618    3.8491   52.6974 C.3     1  ZINC000572148596    0.0800
      3 H3         -6.0267    4.8644   53.0169 H       1  ZINC000572148596    0.1200
      4 C4         -6.8673    3.0879   53.8485 C.2     1  ZINC000572148596    0.1800
      5 N5         -7.6776    2.0748   53.7572 N.2     1  ZINC000572148596   -0.3500
      6 O6         -7.9898    1.6798   54.8607 O.3     1  ZINC000572148596    0.0900
      7 C7         -7.3871    2.4296   55.7967 C.2     1  ZINC000572148596    0.2300
      8 C8         -7.5043    2.2756   57.2602 C.ar    1  ZINC000572148596   -0.1200
      9 C9         -6.8250    3.1472   58.1238 C.ar    1  ZINC000572148596   -0.0100
     10 C10        -6.9626    2.9673   59.4745 C.ar    1  ZINC000572148596   -0.1900
     11 C11        -7.7663    1.9328   59.9480 C.ar    1  ZINC000572148596    0.3400
     12 N12        -7.9081    1.7481   61.3146 N.3     1  ZINC000572148596   -0.4700
     13 C13        -7.2917    0.4838   61.7422 C.3     1  ZINC000572148596    0.0300
     14 C14        -7.4185    0.3488   63.2620 C.3     1  ZINC000572148596    0.0900
     15 H15        -7.0138   -0.6131   63.5770 H       1  ZINC000572148596    0.1100
     16 C16        -6.6407    1.4775   63.9418 C.3     1  ZINC000572148596   -0.1800
     17 O17        -8.7982    0.4299   63.6293 O.3     1  ZINC000572148596   -0.3700
     18 C18        -9.4300    1.6488   63.2288 C.3     1  ZINC000572148596    0.0800
     19 H19        -8.9350    2.4911   63.7121 H       1  ZINC000572148596    0.0700
     20 C20       -10.9039    1.6189   63.6383 C.3     1  ZINC000572148596   -0.1400
     21 C21        -9.3236    1.7969   61.7087 C.3     1  ZINC000572148596    0.0300
     22 N22        -8.3978    1.1226   59.1098 N.ar    1  ZINC000572148596   -0.5200
     23 C23        -8.2973    1.2644   57.8043 C.ar    1  ZINC000572148596    0.1900
     24 N24        -6.6631    3.3290   55.1526 N.2     1  ZINC000572148596   -0.4700
     25 C25        -4.9999    3.1593   52.2473 C.2     1  ZINC000572148596    0.0400
     26 N26        -3.8115    3.4541   52.6545 N.2     1  ZINC000572148596   -0.4500
     27 C27        -2.8144    2.7492   52.1591 C.2     1  ZINC000572148596    0.0400
     28 C28        -3.1821    1.8073   51.2852 C.2     1  ZINC000572148596   -0.2500
     29 S29        -4.9361    1.8679   51.1285 S.3     1  ZINC000572148596    0.1400
     30 H30        -7.4934    2.8821   51.2179 H       1  ZINC000572148596    0.0800
     31 H31        -8.1710    4.3963   51.8630 H       1  ZINC000572148596    0.0700
     32 H32        -6.8204    4.4480   50.7049 H       1  ZINC000572148596    0.0800
     33 H33        -6.2073    3.9420   57.7326 H       1  ZINC000572148596    0.1500
     34 H34        -6.4524    3.6212   60.1662 H       1  ZINC000572148596    0.1500
     35 H35        -7.8000   -0.3507   61.2591 H       1  ZINC000572148596    0.0600
     36 H36        -6.2380    0.4799   61.4632 H       1  ZINC000572148596    0.1000
     37 H37        -7.0468    2.4390   63.6276 H       1  ZINC000572148596    0.0700
     38 H38        -6.7313    1.3809   65.0237 H       1  ZINC000572148596    0.0600
     39 H39        -5.5899    1.4168   63.6583 H       1  ZINC000572148596    0.0700
     40 H40       -10.9783    1.5099   64.7202 H       1  ZINC000572148596    0.0700
     41 H41       -11.3848    2.5481   63.3328 H       1  ZINC000572148596    0.0700
     42 H42       -11.3987    0.7772   63.1535 H       1  ZINC000572148596    0.0600
     43 H43        -9.7532    2.7516   61.4052 H       1  ZINC000572148596    0.1000
     44 H44        -9.8644    0.9834   61.2251 H       1  ZINC000572148596    0.0600
     45 H45        -8.8251    0.5868   57.1495 H       1  ZINC000572148596    0.1700
     46 H46        -1.7845    2.9189   52.4363 H       1  ZINC000572148596    0.1800
     47 H47        -2.5213    1.1266   50.7691 H       1  ZINC000572148596    0.1800
@<TRIPOS>BOND
     1     1     2    1
     2     1    30    1
     3     1    31    1
     4     1    32    1
     5     2     3    1
     6     2     4    1
     7     2    25    1
     8     4    24    1
     9     4     5    2
    10     5     6    1
    11     6     7    1
    12     7     8    1
    13     7    24    2
    14     8    23   ar
    15     8     9   ar
    16     9    10   ar
    17     9    33    1
    18    10    11   ar
    19    10    34    1
    20    11    12    1
    21    11    22   ar
    22    12    21    1
    23    12    13    1
    24    13    14    1
    25    13    35    1
    26    13    36    1
    27    14    15    1
    28    14    16    1
    29    14    17    1
    30    16    37    1
    31    16    38    1
    32    16    39    1
    33    17    18    1
    34    18    19    1
    35    18    20    1
    36    18    21    1
    37    20    40    1
    38    20    41    1
    39    20    42    1
    40    21    43    1
    41    21    44    1
    42    22    23   ar
    43    23    45    1
    44    25    29    1
    45    25    26    2
    46    26    27    1
    47    27    28    2
    48    27    46    1
    49    28    29    1
    50    28    47    1
@<TRIPOS>SUBSTRUCTURE
     1 ZINC000572148596        1 TEMP              0 ****  ****    0 ROOT


##########                                Name:    ZINC000859496582
##########                DOCK_Rotatable_Bonds:                  10
##########                         Heavy_Atoms:                  26
##########                    Molecular_Weight:             361.438
##########                DOCK_Rotatable_Bonds:                  10
##########                       Formal_Charge:           0.0100006
##########                     HBond_Acceptors:                   6
##########                        HBond_Donors:                   0
##########                         Heavy_Atoms:                  26
##########                          Grid_Score:          -29.524355
##########                     Grid_vdw_energy:          -28.983189
##########                      Grid_es_energy:           -0.541167
##########           Internal_energy_repulsive:           12.646470

@<TRIPOS>MOLECULE
ZINC000859496582
 53 54 1 0 0
SMALL
USER_CHARGES


@<TRIPOS>ATOM
      1 C1         -3.5714    1.7229   51.1966 C.3     1  ZINC000859496582    0.0300
      2 O2         -4.4958    2.3544   52.1212 O.3     1  ZINC000859496582   -0.3600
      3 C3         -5.7960    2.3403   51.7880 C.2     1  ZINC000859496582    0.4600
      4 O4         -6.1348    1.9589   50.6927 O.2     1  ZINC000859496582   -0.5100
      5 C5         -6.8331    2.8003   52.7798 C.3     1  ZINC000859496582   -0.1100
      6 C6         -6.4151    2.3751   54.1889 C.3     1  ZINC000859496582   -0.1100
      7 C7         -5.7089    3.5404   54.8849 C.3     1  ZINC000859496582   -0.1200
      8 C8         -5.4472    3.1775   56.3480 C.3     1  ZINC000859496582    0.0700
      9 O9         -6.7085    2.8958   57.0099 O.3     1  ZINC000859496582   -0.3500
     10 C10        -6.6458    2.3275   58.2243 C.2     1  ZINC000859496582    0.4700
     11 O11        -5.5725    2.0955   58.7280 O.2     1  ZINC000859496582   -0.5000
     12 C12        -7.9144    1.9789   58.9594 C.3     1  ZINC000859496582   -0.1000
     13 H13        -8.7305    2.6011   58.5921 H       1  ZINC000859496582    0.1200
     14 C14        -7.7202    2.2232   60.4576 C.3     1  ZINC000859496582   -0.1100
     15 C15        -9.0182    1.9008   61.2014 C.3     1  ZINC000859496582   -0.1300
     16 C16        -9.3675    0.4237   60.9937 C.3     1  ZINC000859496582    0.1100
     17 N17        -9.4137    0.1470   59.5515 N.am    1  ZINC000859496582   -0.6100
     18 C18       -10.5016   -0.4225   58.9960 C.2     1  ZINC000859496582    0.5700
     19 O19       -11.4569   -0.7122   59.6895 O.2     1  ZINC000859496582   -0.5300
     20 C20       -10.5331   -0.6948   57.5432 C.ar    1  ZINC000859496582   -0.1400
     21 C21       -10.0028   -1.8844   57.0413 C.ar    1  ZINC000859496582   -0.0900
     22 C22       -10.0357   -2.1324   55.6847 C.ar    1  ZINC000859496582   -0.1200
     23 C23       -10.5924   -1.2049   54.8220 C.ar    1  ZINC000859496582   -0.0600
     24 C24       -10.6245   -1.4825   53.3411 C.3     1  ZINC000859496582   -0.1200
     25 C25       -11.1202   -0.0240   55.3130 C.ar    1  ZINC000859496582   -0.1200
     26 C26       -11.0984    0.2340   56.6680 C.ar    1  ZINC000859496582   -0.0600
     27 C27        -8.2516    0.5030   58.7257 C.3     1  ZINC000859496582    0.1100
     28 H28        -3.6308    2.2189   50.2278 H       1  ZINC000859496582    0.0600
     29 H29        -2.5563    1.8046   51.5850 H       1  ZINC000859496582    0.1000
     30 H30        -3.8332    0.6709   51.0828 H       1  ZINC000859496582    0.0600
     31 H31        -6.9190    3.8861   52.7385 H       1  ZINC000859496582    0.1100
     32 H32        -7.7951    2.3502   52.5349 H       1  ZINC000859496582    0.1100
     33 H33        -7.2992    2.0925   54.7604 H       1  ZINC000859496582    0.0800
     34 H34        -5.7363    1.5246   54.1254 H       1  ZINC000859496582    0.0800
     35 H35        -4.7613    3.7415   54.3853 H       1  ZINC000859496582    0.0800
     36 H36        -6.3400    4.4279   54.8379 H       1  ZINC000859496582    0.0800
     37 H37        -4.8075    2.2962   56.3951 H       1  ZINC000859496582    0.0700
     38 H38        -4.9537    4.0118   56.8465 H       1  ZINC000859496582    0.0700
     39 H39        -6.9200    1.5831   60.8293 H       1  ZINC000859496582    0.0800
     40 H40        -7.4562    3.2677   60.6240 H       1  ZINC000859496582    0.0800
     41 H41        -8.8864    2.0974   62.2653 H       1  ZINC000859496582    0.0900
     42 H42        -9.8243    2.5234   60.8130 H       1  ZINC000859496582    0.0700
     43 H43        -8.6067   -0.2009   61.4616 H       1  ZINC000859496582    0.0700
     44 H44       -10.3404    0.2125   61.4376 H       1  ZINC000859496582    0.1000
     45 H45        -9.5673   -2.6088   57.7136 H       1  ZINC000859496582    0.1300
     46 H46        -9.6257   -3.0525   55.2950 H       1  ZINC000859496582    0.1300
     47 H47       -11.5487   -2.0021   53.0888 H       1  ZINC000859496582    0.0800
     48 H48       -10.5759   -0.5411   52.7939 H       1  ZINC000859496582    0.0700
     49 H49        -9.7719   -2.1050   53.0696 H       1  ZINC000859496582    0.0700
     50 H50       -11.5536    0.6957   54.6344 H       1  ZINC000859496582    0.1300
     51 H51       -11.5110    1.1562   57.0501 H       1  ZINC000859496582    0.1300
     52 H52        -8.4884    0.3435   57.6737 H       1  ZINC000859496582    0.1100
     53 H53        -7.3994   -0.1150   59.0083 H       1  ZINC000859496582    0.0800
@<TRIPOS>BOND
     1     1     2    1
     2     1    28    1
     3     1    29    1
     4     1    30    1
     5     2     3    1
     6     3     4    2
     7     3     5    1
     8     5     6    1
     9     5    31    1
    10     5    32    1
    11     6     7    1
    12     6    33    1
    13     6    34    1
    14     7     8    1
    15     7    35    1
    16     7    36    1
    17     8     9    1
    18     8    37    1
    19     8    38    1
    20     9    10    1
    21    10    11    2
    22    10    12    1
    23    12    13    1
    24    12    27    1
    25    12    14    1
    26    14    15    1
    27    14    39    1
    28    14    40    1
    29    15    16    1
    30    15    41    1
    31    15    42    1
    32    16    17    1
    33    16    43    1
    34    16    44    1
    35    17    18   am
    36    17    27    1
    37    18    19    2
    38    18    20    1
    39    20    26   ar
    40    20    21   ar
    41    21    22   ar
    42    21    45    1
    43    22    23   ar
    44    22    46    1
    45    23    24    1
    46    23    25   ar
    47    24    47    1
    48    24    48    1
    49    24    49    1
    50    25    26   ar
    51    25    50    1
    52    26    51    1
    53    27    52    1
    54    27    53    1
@<TRIPOS>SUBSTRUCTURE
     1 ZINC000859496582        1 TEMP              0 ****  ****    0 ROOT


##########                                Name:    ZINC000185598309
##########                DOCK_Rotatable_Bonds:                  14
##########                         Heavy_Atoms:                  25
##########                    Molecular_Weight:             347.457
##########                DOCK_Rotatable_Bonds:                  14
##########                       Formal_Charge:               -0.02
##########                     HBond_Acceptors:                   6
##########                        HBond_Donors:                   4
##########                         Heavy_Atoms:                  25
##########                          Grid_Score:          -29.503822
##########                     Grid_vdw_energy:          -28.296801
##########                      Grid_es_energy:           -1.207021
##########           Internal_energy_repulsive:           17.692757

@<TRIPOS>MOLECULE
ZINC000185598309
 54 54 1 0 0
SMALL
USER_CHARGES


@<TRIPOS>ATOM
      1 C1         -3.2236    1.9606   67.0792 C.3     1  ZINC000185598309   -0.1300
      2 C2         -4.5158    2.6681   67.3966 C.2     1  ZINC000185598309   -0.1600
      3 C3         -5.5224    2.5995   66.5611 C.2     1  ZINC000185598309   -0.1600
      4 C4         -5.3878    1.8147   65.2817 C.3     1  ZINC000185598309   -0.0900
      5 C5         -6.7547    1.2584   64.8783 C.3     1  ZINC000185598309    0.1700
      6 H6         -7.4581    2.0810   64.7491 H       1  ZINC000185598309    0.1000
      7 C7         -7.2653    0.3176   65.9715 C.3     1  ZINC000185598309    0.0600
      8 O8         -8.5419   -0.2022   65.5948 O.3     1  ZINC000185598309   -0.5700
      9 N9         -6.6294    0.5208   63.6187 N.am    1  ZINC000185598309   -0.7300
     10 C10        -6.9110    1.1301   62.4500 C.2     1  ZINC000185598309    0.7000
     11 O11        -7.2677    2.2924   62.4410 O.2     1  ZINC000185598309   -0.5900
     12 N12        -6.7972    0.4510   61.2914 N.am    1  ZINC000185598309   -0.7400
     13 C13        -7.1051    1.1129   60.0212 C.3     1  ZINC000185598309    0.1800
     14 C14        -8.4581    0.6613   59.5345 C.ar    1  ZINC000185598309   -0.0900
     15 C15        -9.4529    0.3564   60.4448 C.ar    1  ZINC000185598309   -0.1100
     16 C16       -10.6957   -0.0589   60.0022 C.ar    1  ZINC000185598309   -0.1000
     17 C17       -10.9466   -0.1699   58.6488 C.ar    1  ZINC000185598309   -0.1100
     18 C18        -9.9494    0.1360   57.7318 C.ar    1  ZINC000185598309    0.1400
     19 N19       -10.2006    0.0251   56.3598 N.am    1  ZINC000185598309   -0.6800
     20 C20       -10.3295   -1.1916   55.7945 C.2     1  ZINC000185598309    0.5200
     21 O21       -10.2277   -2.1904   56.4751 O.2     1  ZINC000185598309   -0.5200
     22 C22       -10.6000   -1.3111   54.3168 C.3     1  ZINC000185598309   -0.1100
     23 H23       -10.9661   -2.3134   54.0943 H       1  ZINC000185598309    0.1000
     24 C24        -9.3072   -1.0562   53.5394 C.3     1  ZINC000185598309   -0.1500
     25 C25       -11.6537   -0.2805   53.9062 C.3     1  ZINC000185598309   -0.1100
     26 C26       -12.4357   -0.8035   52.6997 C.3     1  ZINC000185598309   -0.1600
     27 C27        -8.7044    0.5577   58.1793 C.ar    1  ZINC000185598309   -0.1300
     28 H28        -2.5089    2.1308   67.8845 H       1  ZINC000185598309    0.0600
     29 H29        -3.4099    0.8914   66.9788 H       1  ZINC000185598309    0.0600
     30 H30        -2.8172    2.3481   66.1450 H       1  ZINC000185598309    0.0600
     31 H31        -4.6120    3.2318   68.3129 H       1  ZINC000185598309    0.1100
     32 H32        -6.4490    3.1055   66.7892 H       1  ZINC000185598309    0.1100
     33 H33        -5.0138    2.4673   64.4927 H       1  ZINC000185598309    0.0900
     34 H34        -4.6903    0.9907   65.4326 H       1  ZINC000185598309    0.0800
     35 H35        -6.5617   -0.5050   66.1005 H       1  ZINC000185598309    0.0500
     36 H36        -7.3584    0.8663   66.9086 H       1  ZINC000185598309    0.0500
     37 H37        -9.2187    0.4756   65.4613 H       1  ZINC000185598309    0.3800
     38 H38        -6.3437   -0.4062   63.6258 H       1  ZINC000185598309    0.4000
     39 H39        -6.5116   -0.4759   61.2985 H       1  ZINC000185598309    0.4000
     40 H40        -7.1134    2.1931   60.1670 H       1  ZINC000185598309    0.0700
     41 H41        -6.3474    0.8518   59.2824 H       1  ZINC000185598309    0.0800
     42 H42        -9.2592    0.4424   61.5038 H       1  ZINC000185598309    0.1300
     43 H43       -11.4706   -0.2971   60.7158 H       1  ZINC000185598309    0.1300
     44 H44       -11.9171   -0.4946   58.3039 H       1  ZINC000185598309    0.1300
     45 H45       -10.2819    0.8238   55.8154 H       1  ZINC000185598309    0.4100
     46 H46        -8.5565   -1.7904   53.8319 H       1  ZINC000185598309    0.0600
     47 H47        -9.5028   -1.1425   52.4706 H       1  ZINC000185598309    0.0800
     48 H48        -8.9411   -0.0539   53.7619 H       1  ZINC000185598309    0.0600
     49 H49       -12.3385   -0.1102   54.7371 H       1  ZINC000185598309    0.0700
     50 H50       -11.1624    0.6561   53.6426 H       1  ZINC000185598309    0.0700
     51 H51       -11.7509   -0.9738   51.8689 H       1  ZINC000185598309    0.0600
     52 H52       -12.9270   -1.7401   52.9634 H       1  ZINC000185598309    0.0600
     53 H53       -13.1863   -0.0692   52.4072 H       1  ZINC000185598309    0.0600
     54 H54        -7.9269    0.7964   57.4687 H       1  ZINC000185598309    0.1300
@<TRIPOS>BOND
     1     1     2    1
     2     1    28    1
     3     1    29    1
     4     1    30    1
     5     2     3    2
     6     2    31    1
     7     3     4    1
     8     3    32    1
     9     4     5    1
    10     4    33    1
    11     4    34    1
    12     5     6    1
    13     5     7    1
    14     5     9    1
    15     7     8    1
    16     7    35    1
    17     7    36    1
    18     8    37    1
    19     9    10   am
    20     9    38    1
    21    10    11    2
    22    10    12   am
    23    12    13    1
    24    12    39    1
    25    13    14    1
    26    13    40    1
    27    13    41    1
    28    14    27   ar
    29    14    15   ar
    30    15    16   ar
    31    15    42    1
    32    16    17   ar
    33    16    43    1
    34    17    18   ar
    35    17    44    1
    36    18    19    1
    37    18    27   ar
    38    19    20   am
    39    19    45    1
    40    20    21    2
    41    20    22    1
    42    22    23    1
    43    22    24    1
    44    22    25    1
    45    24    46    1
    46    24    47    1
    47    24    48    1
    48    25    26    1
    49    25    49    1
    50    25    50    1
    51    26    51    1
    52    26    52    1
    53    26    53    1
    54    27    54    1
@<TRIPOS>SUBSTRUCTURE
     1 ZINC000185598309        1 TEMP              0 ****  ****    0 ROOT


##########                                Name:    ZINC000788423111
##########                DOCK_Rotatable_Bonds:                   7
##########                         Heavy_Atoms:                  23
##########                    Molecular_Weight:             399.243
##########                DOCK_Rotatable_Bonds:                   7
##########                       Formal_Charge:         1.04308e-07
##########                     HBond_Acceptors:                   8
##########                        HBond_Donors:                   1
##########                         Heavy_Atoms:                  23
##########                          Grid_Score:          -29.497515
##########                     Grid_vdw_energy:          -29.509752
##########                      Grid_es_energy:            0.012238
##########           Internal_energy_repulsive:            3.163989

@<TRIPOS>MOLECULE
ZINC000788423111
 35 37 1 0 0
SMALL
USER_CHARGES


@<TRIPOS>ATOM
      1 O1         -7.5732    3.5645   53.8541 O.3     1  ZINC000788423111   -0.5400
      2 C2         -7.6124    2.1435   54.0008 C.3     1  ZINC000788423111    0.1000
      3 H3         -7.3692    1.8776   55.0295 H       1  ZINC000788423111    0.1300
      4 C4         -6.5938    1.5049   53.0545 C.3     1  ZINC000788423111    0.0300
      5 O5         -6.0534    2.5064   52.1901 O.3     1  ZINC000788423111   -0.2900
      6 C6         -4.7022    2.6509   52.1825 C.ar    1  ZINC000788423111    0.1700
      7 C7         -3.9419    2.0194   51.2099 C.ar    1  ZINC000788423111   -0.2400
      8 C8         -2.5659    2.1679   51.2042 C.ar    1  ZINC000788423111    0.1500
      9 F9         -1.8242    1.5531   50.2571 F       1  ZINC000788423111   -0.1300
     10 C10        -1.9494    2.9468   52.1687 C.ar    1  ZINC000788423111   -0.1600
     11 C11        -2.7072    3.5767   53.1396 C.ar    1  ZINC000788423111   -0.0300
     12 Br12       -1.8621    4.6398   54.4555 Br      1  ZINC000788423111   -0.0200
     13 C13        -4.0822    3.4352   53.1448 C.ar    1  ZINC000788423111   -0.1300
     14 C14        -9.0143    1.6341   53.6602 C.3     1  ZINC000788423111    0.1000
     15 N15        -9.2125    0.3121   54.2593 N.pl3   1  ZINC000788423111   -0.1300
     16 N16        -8.9306   -0.8103   53.6956 N.2     1  ZINC000788423111   -0.0500
     17 N17        -9.2301   -1.7718   54.5015 N.2     1  ZINC000788423111   -0.2600
     18 C18        -9.7219   -1.2155   55.6194 C.2     1  ZINC000788423111    0.2400
     19 C19       -10.1991   -1.9275   56.8250 C.2     1  ZINC000788423111   -0.1300
     20 C20       -10.1895   -3.2641   56.9939 C.2     1  ZINC000788423111   -0.0800
     21 C21       -10.6872   -3.6959   58.2063 C.2     1  ZINC000788423111   -0.1400
     22 C22       -11.1015   -2.7256   59.0259 C.2     1  ZINC000788423111   -0.2000
     23 S23       -10.8599   -1.1597   58.2629 S.3     1  ZINC000788423111    0.1700
     24 N24        -9.6912    0.0911   55.4353 N.2     1  ZINC000788423111   -0.2900
     25 H25        -8.2659    4.0296   54.3429 H       1  ZINC000788423111    0.3800
     26 H26        -5.7896    1.0548   53.6365 H       1  ZINC000788423111    0.0900
     27 H27        -7.0845    0.7361   52.4577 H       1  ZINC000788423111    0.0800
     28 H28        -4.4230    1.4119   50.4576 H       1  ZINC000788423111    0.1500
     29 H29        -0.8756    3.0624   52.1632 H       1  ZINC000788423111    0.1500
     30 H30        -4.6731    3.9276   53.9029 H       1  ZINC000788423111    0.1500
     31 H31        -9.7582    2.3267   54.0540 H       1  ZINC000788423111    0.1300
     32 H32        -9.1218    1.5624   52.5778 H       1  ZINC000788423111    0.1300
     33 H33        -9.8219   -3.9440   56.2397 H       1  ZINC000788423111    0.1500
     34 H34       -10.7382   -4.7412   58.4728 H       1  ZINC000788423111    0.1500
     35 H35       -11.5178   -2.8795   60.0104 H       1  ZINC000788423111    0.1700
@<TRIPOS>BOND
     1     1     2    1
     2     1    25    1
     3     2     3    1
     4     2     4    1
     5     2    14    1
     6     4     5    1
     7     4    26    1
     8     4    27    1
     9     5     6    1
    10     6    13   ar
    11     6     7   ar
    12     7     8   ar
    13     7    28    1
    14     8     9    1
    15     8    10   ar
    16    10    11   ar
    17    10    29    1
    18    11    12    1
    19    11    13   ar
    20    13    30    1
    21    14    15    1
    22    14    31    1
    23    14    32    1
    24    15    24    1
    25    15    16    1
    26    16    17    2
    27    17    18    1
    28    18    19    1
    29    18    24    2
    30    19    23    1
    31    19    20    2
    32    20    21    1
    33    20    33    1
    34    21    22    2
    35    21    34    1
    36    22    23    1
    37    22    35    1
@<TRIPOS>SUBSTRUCTURE
     1 ZINC000788423111        1 TEMP              0 ****  ****    0 ROOT


##########                                Name:    ZINC001344051361
##########                DOCK_Rotatable_Bonds:                   8
##########                         Heavy_Atoms:                  28
##########                    Molecular_Weight:             379.456
##########                DOCK_Rotatable_Bonds:                   8
##########                       Formal_Charge:          -0.0100006
##########                     HBond_Acceptors:                   5
##########                        HBond_Donors:                   0
##########                         Heavy_Atoms:                  28
##########                          Grid_Score:          -29.495136
##########                     Grid_vdw_energy:          -29.180361
##########                      Grid_es_energy:           -0.314775
##########           Internal_energy_repulsive:           19.839754

@<TRIPOS>MOLECULE
ZINC001344051361
 53 56 1 0 0
SMALL
USER_CHARGES


@<TRIPOS>ATOM
      1 O1        -13.9761    2.7297   51.7651 O.2     1  ZINC001344051361   -0.4800
      2 C2        -13.4233    1.8821   51.1049 C.2     1  ZINC001344051361    0.4800
      3 O3        -12.3581    2.2044   50.3546 O.3     1  ZINC001344051361   -0.3500
      4 C4        -11.8813    3.5733   50.4403 C.3     1  ZINC001344051361    0.0700
      5 C5        -10.3515    3.5800   50.4646 C.3     1  ZINC001344051361   -0.1000
      6 H6         -9.9743    2.7656   49.8460 H       1  ZINC001344051361    0.0900
      7 C7         -9.8379    4.9149   49.9205 C.3     1  ZINC001344051361   -0.1200
      8 C8         -8.3075    4.9101   49.9138 C.3     1  ZINC001344051361   -0.1300
      9 C9         -7.7950    4.7430   51.3477 C.3     1  ZINC001344051361    0.0800
     10 N10        -8.3998    3.5365   51.9285 N.am    1  ZINC001344051361   -0.6100
     11 C11        -7.6276    2.5754   52.4730 C.2     1  ZINC001344051361    0.5600
     12 O12        -8.1400    1.5818   52.9503 O.2     1  ZINC001344051361   -0.5300
     13 C13        -6.1572    2.7295   52.4897 C.ar    1  ZINC001344051361   -0.1300
     14 C14        -5.3796    2.1423   51.4904 C.ar    1  ZINC001344051361   -0.1000
     15 C15        -4.0081    2.2903   51.5117 C.ar    1  ZINC001344051361   -0.1300
     16 C16        -3.4034    3.0185   52.5208 C.ar    1  ZINC001344051361   -0.0900
     17 C17        -4.1684    3.6027   53.5145 C.ar    1  ZINC001344051361   -0.1300
     18 C18        -5.5414    3.4676   53.5015 C.ar    1  ZINC001344051361   -0.0600
     19 C19        -9.8622    3.3970   51.9047 C.3     1  ZINC001344051361    0.1200
     20 C20       -13.9261    0.4616   51.1288 C.3     1  ZINC001344051361    0.0200
     21 O21       -12.9226   -0.5449   51.2773 O.3     1  ZINC001344051361   -0.2500
     22 C22       -12.2499   -0.5762   52.4577 C.ar    1  ZINC001344051361    0.1200
     23 C23       -11.0708   -1.2990   52.5666 C.ar    1  ZINC001344051361   -0.2000
     24 C24       -10.3886   -1.3289   53.7675 C.ar    1  ZINC001344051361   -0.0800
     25 C25       -10.8803   -0.6394   54.8605 C.ar    1  ZINC001344051361   -0.1500
     26 C26       -12.0554    0.0814   54.7547 C.ar    1  ZINC001344051361   -0.0800
     27 C27       -12.7381    0.1195   53.5543 C.ar    1  ZINC001344051361   -0.1400
     28 C28       -15.2867    0.2046   51.7797 C.3     1  ZINC001344051361   -0.1700
     29 C29       -15.1392    0.1267   50.2588 C.3     1  ZINC001344051361   -0.1100
     30 H30       -12.2334    4.1354   49.5755 H       1  ZINC001344051361    0.0800
     31 H31       -12.2612    4.0339   51.3522 H       1  ZINC001344051361    0.0800
     32 H32       -10.2051    5.0584   48.9043 H       1  ZINC001344051361    0.0700
     33 H33       -10.1956    5.7269   50.5536 H       1  ZINC001344051361    0.0700
     34 H34        -7.9490    4.0832   49.3007 H       1  ZINC001344051361    0.0700
     35 H35        -7.9425    5.8520   49.5044 H       1  ZINC001344051361    0.0800
     36 H36        -6.7100    4.6396   51.3382 H       1  ZINC001344051361    0.1100
     37 H37        -8.0760    5.6139   51.9399 H       1  ZINC001344051361    0.0700
     38 H38        -5.8503    1.5730   50.7027 H       1  ZINC001344051361    0.1400
     39 H39        -3.4051    1.8364   50.7390 H       1  ZINC001344051361    0.1300
     40 H40        -2.3293    3.1310   52.5330 H       1  ZINC001344051361    0.1300
     41 H41        -3.6901    4.1696   54.2996 H       1  ZINC001344051361    0.1300
     42 H42        -6.1374    3.9245   54.2777 H       1  ZINC001344051361    0.1300
     43 H43       -10.3123    4.1580   52.5422 H       1  ZINC001344051361    0.0700
     44 H44       -10.1406    2.4059   52.2630 H       1  ZINC001344051361    0.1000
     45 H45       -10.6868   -1.8383   51.7133 H       1  ZINC001344051361    0.1300
     46 H46        -9.4707   -1.8915   53.8528 H       1  ZINC001344051361    0.1300
     47 H47       -10.3457   -0.6643   55.7986 H       1  ZINC001344051361    0.1300
     48 H48       -12.4377    0.6188   55.6100 H       1  ZINC001344051361    0.1300
     49 H49       -13.6560    0.6826   53.4721 H       1  ZINC001344051361    0.1300
     50 H50       -15.4166   -0.7324   52.3212 H       1  ZINC001344051361    0.1200
     51 H51       -15.8182    1.0629   52.1905 H       1  ZINC001344051361    0.1200
     52 H52       -15.5738    0.9338   49.6690 H       1  ZINC001344051361    0.1200
     53 H53       -15.1721   -0.8614   49.7998 H       1  ZINC001344051361    0.1200
@<TRIPOS>BOND
     1     1     2    2
     2     2     3    1
     3     2    20    1
     4     3     4    1
     5     4     5    1
     6     4    30    1
     7     4    31    1
     8     5     6    1
     9     5    19    1
    10     5     7    1
    11     7     8    1
    12     7    32    1
    13     7    33    1
    14     8     9    1
    15     8    34    1
    16     8    35    1
    17     9    10    1
    18     9    36    1
    19     9    37    1
    20    10    11   am
    21    10    19    1
    22    11    12    2
    23    11    13    1
    24    13    18   ar
    25    13    14   ar
    26    14    15   ar
    27    14    38    1
    28    15    16   ar
    29    15    39    1
    30    16    17   ar
    31    16    40    1
    32    17    18   ar
    33    17    41    1
    34    18    42    1
    35    19    43    1
    36    19    44    1
    37    20    29    1
    38    20    21    1
    39    20    28    1
    40    21    22    1
    41    22    27   ar
    42    22    23   ar
    43    23    24   ar
    44    23    45    1
    45    24    25   ar
    46    24    46    1
    47    25    26   ar
    48    25    47    1
    49    26    27   ar
    50    26    48    1
    51    27    49    1
    52    28    29    1
    53    28    50    1
    54    28    51    1
    55    29    52    1
    56    29    53    1
@<TRIPOS>SUBSTRUCTURE
     1 ZINC001344051361        1 TEMP              0 ****  ****    0 ROOT


##########                                Name:    ZINC000482187991
##########                DOCK_Rotatable_Bonds:                  11
##########                         Heavy_Atoms:                  29
##########                    Molecular_Weight:             407.414
##########                DOCK_Rotatable_Bonds:                  11
##########                       Formal_Charge:           0.0299996
##########                     HBond_Acceptors:                   8
##########                        HBond_Donors:                   1
##########                         Heavy_Atoms:                  29
##########                          Grid_Score:          -29.469479
##########                     Grid_vdw_energy:          -28.881662
##########                      Grid_es_energy:           -0.587817
##########           Internal_energy_repulsive:           15.532283

@<TRIPOS>MOLECULE
ZINC000482187991
 52 53 1 0 0
SMALL
USER_CHARGES


@<TRIPOS>ATOM
      1 C1        -11.6916   -3.0443   58.3159 C.3     1  ZINC000482187991    0.0200
      2 O2        -12.4379   -1.8732   57.9787 O.3     1  ZINC000482187991   -0.3000
      3 C3        -12.5722   -1.5863   56.6560 C.ar    1  ZINC000482187991    0.1400
      4 C4        -11.4503   -1.4554   55.8612 C.ar    1  ZINC000482187991   -0.1700
      5 C5        -11.5897   -1.1605   54.4997 C.ar    1  ZINC000482187991   -0.1000
      6 C6        -10.3993   -1.0209   53.6510 C.2     1  ZINC000482187991    0.4000
      7 O7        -10.2647   -1.7272   52.6741 O.2     1  ZINC000482187991   -0.4500
      8 C8         -9.3450   -0.0001   53.9938 C.3     1  ZINC000482187991   -0.1500
      9 C9         -9.9603    1.4003   53.9585 C.3     1  ZINC000482187991   -0.1300
     10 C10        -8.8615    2.4312   53.9268 C.2     1  ZINC000482187991    0.5200
     11 O11        -9.0979    3.5579   53.5455 O.2     1  ZINC000482187991   -0.5200
     12 N12        -7.6161    2.1010   54.3221 N.am    1  ZINC000482187991   -0.7200
     13 C13        -6.5475    3.1028   54.2897 C.3     1  ZINC000482187991    0.1500
     14 H14        -6.9796    4.0895   54.1230 H       1  ZINC000482187991    0.1300
     15 C15        -5.5891    2.7788   53.1727 C.ar    1  ZINC000482187991   -0.1100
     16 C16        -4.2746    3.2001   53.2458 C.ar    1  ZINC000482187991   -0.1000
     17 C17        -3.3956    2.9031   52.2212 C.ar    1  ZINC000482187991   -0.1200
     18 C18        -3.8310    2.1844   51.1236 C.ar    1  ZINC000482187991   -0.1100
     19 C19        -5.1453    1.7624   51.0508 C.ar    1  ZINC000482187991   -0.1200
     20 C20        -6.0233    2.0557   52.0775 C.ar    1  ZINC000482187991   -0.1000
     21 C21        -5.7983    3.0926   55.6237 C.3     1  ZINC000482187991    0.2500
     22 F22        -5.3349    4.3817   55.9079 F       1  ZINC000482187991   -0.1900
     23 F23        -6.6623    2.6728   56.6406 F       1  ZINC000482187991   -0.2000
     24 C24       -12.8669   -0.9994   53.9489 C.ar    1  ZINC000482187991   -0.1900
     25 C25       -13.9842   -1.1318   54.7501 C.ar    1  ZINC000482187991    0.1400
     26 O26       -15.2252   -0.9760   54.2160 O.3     1  ZINC000482187991   -0.3000
     27 C27       -15.7482    0.3530   54.1672 C.3     1  ZINC000482187991    0.0200
     28 C28       -13.8416   -1.4306   56.1034 C.ar    1  ZINC000482187991    0.0600
     29 O29       -14.9428   -1.5604   56.8881 O.3     1  ZINC000482187991   -0.3100
     30 C30       -15.5986   -2.8301   56.8806 C.3     1  ZINC000482187991    0.0400
     31 H31       -11.6614   -3.1564   59.3997 H       1  ZINC000482187991    0.1100
     32 H32       -12.1685   -3.9190   57.8734 H       1  ZINC000482187991    0.0600
     33 H33       -10.6758   -2.9510   57.9317 H       1  ZINC000482187991    0.0600
     34 H34       -10.4668   -1.5800   56.2895 H       1  ZINC000482187991    0.1500
     35 H35        -8.9557   -0.2008   54.9920 H       1  ZINC000482187991    0.1100
     36 H36        -8.5332   -0.0587   53.2687 H       1  ZINC000482187991    0.1100
     37 H37       -10.5801    1.5024   53.0676 H       1  ZINC000482187991    0.1000
     38 H38       -10.5736    1.5502   54.8469 H       1  ZINC000482187991    0.1000
     39 H39        -7.4272    1.2001   54.6283 H       1  ZINC000482187991    0.4100
     40 H40        -3.9344    3.7616   54.1034 H       1  ZINC000482187991    0.1200
     41 H41        -2.3687    3.2328   52.2780 H       1  ZINC000482187991    0.1300
     42 H42        -3.1444    1.9529   50.3227 H       1  ZINC000482187991    0.1300
     43 H43        -5.4856    1.2012   50.1931 H       1  ZINC000482187991    0.1300
     44 H44        -7.0501    1.7260   52.0206 H       1  ZINC000482187991    0.1300
     45 H45        -4.9523    2.4082   55.5600 H       1  ZINC000482187991    0.1200
     46 H46       -12.9782   -0.7716   52.8992 H       1  ZINC000482187991    0.1500
     47 H47       -15.8117    0.7559   55.1780 H       1  ZINC000482187991    0.0600
     48 H48       -15.0900    0.9807   53.5665 H       1  ZINC000482187991    0.0600
     49 H49       -16.7420    0.3361   53.7198 H       1  ZINC000482187991    0.1100
     50 H50       -15.9311   -3.0613   55.8687 H       1  ZINC000482187991    0.0500
     51 H51       -14.9048   -3.5994   57.2197 H       1  ZINC000482187991    0.0500
     52 H52       -16.4600   -2.7980   57.5478 H       1  ZINC000482187991    0.1000
@<TRIPOS>BOND
     1     1     2    1
     2     1    31    1
     3     1    32    1
     4     1    33    1
     5     2     3    1
     6     3    28   ar
     7     3     4   ar
     8     4     5   ar
     9     4    34    1
    10     5     6    1
    11     5    24   ar
    12     6     7    2
    13     6     8    1
    14     8     9    1
    15     8    35    1
    16     8    36    1
    17     9    10    1
    18     9    37    1
    19     9    38    1
    20    10    11    2
    21    10    12   am
    22    12    13    1
    23    12    39    1
    24    13    14    1
    25    13    15    1
    26    13    21    1
    27    15    20   ar
    28    15    16   ar
    29    16    17   ar
    30    16    40    1
    31    17    18   ar
    32    17    41    1
    33    18    19   ar
    34    18    42    1
    35    19    20   ar
    36    19    43    1
    37    20    44    1
    38    21    22    1
    39    21    23    1
    40    21    45    1
    41    24    25   ar
    42    24    46    1
    43    25    26    1
    44    25    28   ar
    45    26    27    1
    46    27    47    1
    47    27    48    1
    48    27    49    1
    49    28    29    1
    50    29    30    1
    51    30    50    1
    52    30    51    1
    53    30    52    1
@<TRIPOS>SUBSTRUCTURE
     1 ZINC000482187991        1 TEMP              0 ****  ****    0 ROOT


##########                                Name:    ZINC000558052810
##########                DOCK_Rotatable_Bonds:                   9
##########                         Heavy_Atoms:                  30
##########                    Molecular_Weight:             424.524
##########                DOCK_Rotatable_Bonds:                   9
##########                       Formal_Charge:          -0.0200002
##########                     HBond_Acceptors:                   8
##########                        HBond_Donors:                   1
##########                         Heavy_Atoms:                  30
##########                          Grid_Score:          -29.463121
##########                     Grid_vdw_energy:          -28.263647
##########                      Grid_es_energy:           -1.199474
##########           Internal_energy_repulsive:           21.586357

@<TRIPOS>MOLECULE
ZINC000558052810
 54 56 1 0 0
SMALL
USER_CHARGES


@<TRIPOS>ATOM
      1 C1        -13.2970    2.4210   61.0017 C.3     1  ZINC000558052810   -0.1700
      2 C2        -11.9920    2.1356   60.2559 C.3     1  ZINC000558052810    0.1100
      3 N3        -11.8797    0.6972   60.0014 N.am    1  ZINC000558052810   -0.6100
      4 C4        -13.0843   -0.0996   59.7559 C.3     1  ZINC000558052810    0.0700
      5 C5        -10.6681    0.1070   59.9931 C.2     1  ZINC000558052810    0.5600
      6 O6        -10.5747   -1.0864   59.7822 O.2     1  ZINC000558052810   -0.5300
      7 C7         -9.4522    0.9112   60.2409 C.ar    1  ZINC000558052810   -0.1100
      8 C8         -8.9228    1.0015   61.5292 C.ar    1  ZINC000558052810   -0.1100
      9 C9         -7.7878    1.7529   61.7578 C.ar    1  ZINC000558052810   -0.1000
     10 C10        -7.1722    2.4183   60.7145 C.ar    1  ZINC000558052810   -0.1300
     11 C11        -7.6918    2.3352   59.4280 C.ar    1  ZINC000558052810    0.1400
     12 N12        -7.0653    3.0110   58.3756 N.am    1  ZINC000558052810   -0.6600
     13 C13        -6.1498    2.3761   57.6172 C.2     1  ZINC000558052810    0.5600
     14 O14        -5.8684    1.2156   57.8478 O.2     1  ZINC000558052810   -0.4800
     15 C15        -5.4898    3.0880   56.5086 C.ar    1  ZINC000558052810   -0.1900
     16 C16        -4.2177    3.6466   56.6772 C.ar    1  ZINC000558052810   -0.0200
     17 C17        -3.6413    4.3050   55.6053 C.ar    1  ZINC000558052810   -0.1900
     18 C18        -4.3300    4.3926   54.4086 C.ar    1  ZINC000558052810    0.1500
     19 N19        -5.5281    3.8604   54.2687 N.ar    1  ZINC000558052810   -0.4900
     20 C20        -6.1241    3.2138   55.2596 C.ar    1  ZINC000558052810    0.1600
     21 S21        -7.7264    2.5221   55.0166 S.3     1  ZINC000558052810    0.0600
     22 C22        -7.7441    2.3967   53.2111 C.3     1  ZINC000558052810   -0.0700
     23 C23        -7.2495    1.0347   52.7972 C.2     1  ZINC000558052810   -0.2000
     24 C24        -6.0871    0.7229   52.1758 C.2     1  ZINC000558052810   -0.0100
     25 C25        -5.0064    1.6826   51.7490 C.3     1  ZINC000558052810   -0.0800
     26 O26        -6.0877   -0.6080   52.0153 O.3     1  ZINC000558052810    0.1000
     27 N27        -7.0943   -1.1089   52.4604 N.2     1  ZINC000558052810   -0.3600
     28 C28        -7.8884   -0.2141   52.9733 C.2     1  ZINC000558052810    0.0300
     29 C29        -9.2281   -0.4596   53.6184 C.3     1  ZINC000558052810   -0.0800
     30 C30        -8.8273    1.5777   59.1867 C.ar    1  ZINC000558052810   -0.0700
     31 H31       -14.1413    2.0923   60.3957 H       1  ZINC000558052810    0.0600
     32 H32       -13.2989    1.8832   61.9498 H       1  ZINC000558052810    0.0600
     33 H33       -13.3806    3.4913   61.1910 H       1  ZINC000558052810    0.0700
     34 H34       -11.9901    2.6735   59.3079 H       1  ZINC000558052810    0.0800
     35 H35       -11.1477    2.4644   60.8619 H       1  ZINC000558052810    0.0800
     36 H36       -13.3481   -0.0432   58.6998 H       1  ZINC000558052810    0.0600
     37 H37       -12.8950   -1.1378   60.0283 H       1  ZINC000558052810    0.0800
     38 H38       -13.9061    0.2897   60.3569 H       1  ZINC000558052810    0.0700
     39 H39        -9.4014    0.4836   62.3472 H       1  ZINC000558052810    0.1400
     40 H40        -7.3798    1.8215   62.7554 H       1  ZINC000558052810    0.1400
     41 H41        -6.2846    3.0052   60.8997 H       1  ZINC000558052810    0.1300
     42 H42        -7.2896    3.9366   58.1918 H       1  ZINC000558052810    0.4100
     43 H43        -3.6988    3.5660   57.6211 H       1  ZINC000558052810    0.1400
     44 H44        -2.6609    4.7475   55.7024 H       1  ZINC000558052810    0.1500
     45 H45        -3.8779    4.9071   53.5735 H       1  ZINC000558052810    0.1700
     46 H46        -8.7614    2.5399   52.8469 H       1  ZINC000558052810    0.1000
     47 H47        -7.0952    3.1631   52.7872 H       1  ZINC000558052810    0.1000
     48 H48        -4.2874    1.8037   52.5592 H       1  ZINC000558052810    0.0900
     49 H49        -4.4987    1.2896   50.8682 H       1  ZINC000558052810    0.0900
     50 H50        -5.4517    2.6486   51.5110 H       1  ZINC000558052810    0.0900
     51 H51        -9.0911   -0.6338   54.6857 H       1  ZINC000558052810    0.0800
     52 H52        -9.8672    0.4110   53.4714 H       1  ZINC000558052810    0.0800
     53 H53        -9.6951   -1.3339   53.1648 H       1  ZINC000558052810    0.0800
     54 H54        -9.2325    1.5117   58.1878 H       1  ZINC000558052810    0.1500
@<TRIPOS>BOND
     1     1     2    1
     2     1    31    1
     3     1    32    1
     4     1    33    1
     5     2     3    1
     6     2    34    1
     7     2    35    1
     8     3     4    1
     9     3     5   am
    10     4    36    1
    11     4    37    1
    12     4    38    1
    13     5     6    2
    14     5     7    1
    15     7    30   ar
    16     7     8   ar
    17     8     9   ar
    18     8    39    1
    19     9    10   ar
    20     9    40    1
    21    10    11   ar
    22    10    41    1
    23    11    12    1
    24    11    30   ar
    25    12    13   am
    26    12    42    1
    27    13    14    2
    28    13    15    1
    29    15    20   ar
    30    15    16   ar
    31    16    17   ar
    32    16    43    1
    33    17    18   ar
    34    17    44    1
    35    18    19   ar
    36    18    45    1
    37    19    20   ar
    38    20    21    1
    39    21    22    1
    40    22    23    1
    41    22    46    1
    42    22    47    1
    43    23    28    1
    44    23    24    2
    45    24    25    1
    46    24    26    1
    47    25    48    1
    48    25    49    1
    49    25    50    1
    50    26    27    1
    51    27    28    2
    52    28    29    1
    53    29    51    1
    54    29    52    1
    55    29    53    1
    56    30    54    1
@<TRIPOS>SUBSTRUCTURE
     1 ZINC000558052810        1 TEMP              0 ****  ****    0 ROOT


##########                                Name:    ZINC000062882109
##########                DOCK_Rotatable_Bonds:                   8
##########                         Heavy_Atoms:                  31
##########                    Molecular_Weight:             424.497
##########                DOCK_Rotatable_Bonds:                   8
##########                       Formal_Charge:           0.0299993
##########                     HBond_Acceptors:                   7
##########                        HBond_Donors:                   1
##########                         Heavy_Atoms:                  31
##########                          Grid_Score:          -29.440874
##########                     Grid_vdw_energy:          -30.563143
##########                      Grid_es_energy:            1.122268
##########           Internal_energy_repulsive:          189.325119

@<TRIPOS>MOLECULE
ZINC000062882109
 59 61 1 0 0
SMALL
USER_CHARGES


@<TRIPOS>ATOM
      1 C1          2.1150    5.5722   52.5843 C.3     1  ZINC000062882109   -0.2000
      2 C2          3.2523    4.6344   52.8977 C.2     1  ZINC000062882109    0.3900
      3 O3          4.1521    4.4843   52.0989 O.2     1  ZINC000062882109   -0.4500
      4 C4          3.2708    3.9006   54.1735 C.ar    1  ZINC000062882109   -0.1300
      5 C5          4.3252    3.0305   54.4678 C.ar    1  ZINC000062882109   -0.1100
      6 C6          4.3382    2.3450   55.6647 C.ar    1  ZINC000062882109   -0.0900
      7 C7          3.3118    2.5149   56.5758 C.ar    1  ZINC000062882109   -0.1800
      8 C8          2.2596    3.3765   56.2931 C.ar    1  ZINC000062882109    0.1200
      9 O9          1.2542    3.5385   57.1933 O.3     1  ZINC000062882109   -0.2800
     10 C10         0.1827    4.4069   56.8195 C.3     1  ZINC000062882109    0.0700
     11 H11         0.5899    5.3421   56.4353 H       1  ZINC000062882109    0.1000
     12 C12        -0.6903    4.6952   58.0426 C.3     1  ZINC000062882109   -0.1800
     13 C13        -0.6508    3.7457   55.7521 C.2     1  ZINC000062882109    0.5200
     14 O14        -0.8782    2.5558   55.8105 O.2     1  ZINC000062882109   -0.4900
     15 N15        -1.1434    4.4768   54.7326 N.am    1  ZINC000062882109   -0.6600
     16 C16        -1.9182    3.8621   53.7402 C.ar    1  ZINC000062882109    0.1400
     17 C17        -1.3021    3.2480   52.6583 C.ar    1  ZINC000062882109   -0.1000
     18 C18        -2.0628    2.6422   51.6766 C.ar    1  ZINC000062882109   -0.1100
     19 C19        -3.4466    2.6448   51.7671 C.ar    1  ZINC000062882109    0.0800
     20 O20        -4.1844    2.0528   50.7900 O.3     1  ZINC000062882109   -0.3100
     21 C21        -5.5292    1.6825   51.1031 C.3     1  ZINC000062882109    0.0500
     22 C22        -6.2351    2.8826   51.7502 C.3     1  ZINC000062882109    0.0400
     23 N23        -5.4672    3.2568   52.9500 N.am    1  ZINC000062882109   -0.5500
     24 C24        -6.0875    3.5866   54.1002 C.2     1  ZINC000062882109    0.5300
     25 O25        -5.4344    3.8915   55.0757 O.2     1  ZINC000062882109   -0.5100
     26 C26        -7.5927    3.5764   54.1742 C.3     1  ZINC000062882109   -0.0800
     27 C27        -8.0407    4.1382   55.5250 C.3     1  ZINC000062882109   -0.1300
     28 C28        -8.1646    4.4396   53.0479 C.3     1  ZINC000062882109   -0.1600
     29 C29        -8.1010    2.1410   54.0249 C.3     1  ZINC000062882109   -0.1500
     30 C30        -4.0650    3.2577   52.8541 C.ar    1  ZINC000062882109    0.1000
     31 C31        -3.3032    3.8616   53.8403 C.ar    1  ZINC000062882109   -0.1400
     32 C32         2.2374    4.0750   55.0987 C.ar    1  ZINC000062882109   -0.0900
     33 H33         2.2737    6.0206   51.6035 H       1  ZINC000062882109    0.0900
     34 H34         1.1766    5.0177   52.5827 H       1  ZINC000062882109    0.1000
     35 H35         2.0723    6.3567   53.3398 H       1  ZINC000062882109    0.1000
     36 H36         5.1282    2.8950   53.7586 H       1  ZINC000062882109    0.1400
     37 H37         5.1526    1.6728   55.8910 H       1  ZINC000062882109    0.1300
     38 H38         3.3282    1.9751   57.5110 H       1  ZINC000062882109    0.1300
     39 H39        -0.0874    5.1734   58.8146 H       1  ZINC000062882109    0.0800
     40 H40        -1.5077    5.3577   57.7575 H       1  ZINC000062882109    0.0800
     41 H41        -1.0976    3.7601   58.4269 H       1  ZINC000062882109    0.0800
     42 H42        -0.9615    5.4284   54.6859 H       1  ZINC000062882109    0.4100
     43 H43        -0.2247    3.2438   52.5836 H       1  ZINC000062882109    0.1400
     44 H44        -1.5787    2.1661   50.8368 H       1  ZINC000062882109    0.1400
     45 H45        -6.0523    1.3999   50.1896 H       1  ZINC000062882109    0.1300
     46 H46        -5.5245    0.8430   51.7983 H       1  ZINC000062882109    0.0700
     47 H47        -6.2596    3.7184   51.0510 H       1  ZINC000062882109    0.0900
     48 H48        -7.2510    2.6058   52.0326 H       1  ZINC000062882109    0.1300
     49 H49        -7.6786    5.1608   55.6313 H       1  ZINC000062882109    0.0600
     50 H50        -9.1294    4.1308   55.5785 H       1  ZINC000062882109    0.0700
     51 H51        -7.6334    3.5232   56.3274 H       1  ZINC000062882109    0.0700
     52 H52        -7.8455    4.0394   52.0856 H       1  ZINC000062882109    0.0700
     53 H53        -9.2532    4.4323   53.1014 H       1  ZINC000062882109    0.0800
     54 H54        -7.8025    5.4622   53.1542 H       1  ZINC000062882109    0.0600
     55 H55        -7.8611    1.5752   54.9251 H       1  ZINC000062882109    0.0700
     56 H56        -9.1811    2.1514   53.8794 H       1  ZINC000062882109    0.0800
     57 H57        -7.6228    1.6740   53.1639 H       1  ZINC000062882109    0.0700
     58 H58        -3.7852    4.3350   54.6830 H       1  ZINC000062882109    0.1800
     59 H59         1.4199    4.7455   54.8782 H       1  ZINC000062882109    0.1400
@<TRIPOS>BOND
     1     1     2    1
     2     1    33    1
     3     1    34    1
     4     1    35    1
     5     2     3    2
     6     2     4    1
     7     4    32   ar
     8     4     5   ar
     9     5     6   ar
    10     5    36    1
    11     6     7   ar
    12     6    37    1
    13     7     8   ar
    14     7    38    1
    15     8     9    1
    16     8    32   ar
    17     9    10    1
    18    10    11    1
    19    10    12    1
    20    10    13    1
    21    12    39    1
    22    12    40    1
    23    12    41    1
    24    13    14    2
    25    13    15   am
    26    15    16    1
    27    15    42    1
    28    16    31   ar
    29    16    17   ar
    30    17    18   ar
    31    17    43    1
    32    18    19   ar
    33    18    44    1
    34    19    30   ar
    35    19    20    1
    36    20    21    1
    37    21    22    1
    38    21    45    1
    39    21    46    1
    40    22    23    1
    41    22    47    1
    42    22    48    1
    43    23    24   am
    44    23    30    1
    45    24    25    2
    46    24    26    1
    47    26    27    1
    48    26    28    1
    49    26    29    1
    50    27    49    1
    51    27    50    1
    52    27    51    1
    53    28    52    1
    54    28    53    1
    55    28    54    1
    56    29    55    1
    57    29    56    1
    58    29    57    1
    59    30    31   ar
    60    31    58    1
    61    32    59    1
@<TRIPOS>SUBSTRUCTURE
     1 ZINC000062882109        1 TEMP              0 ****  ****    0 ROOT


##########                                Name:    ZINC000013809319
##########                DOCK_Rotatable_Bonds:                  10
##########                         Heavy_Atoms:                  30
##########                    Molecular_Weight:             407.469
##########                DOCK_Rotatable_Bonds:                  10
##########                       Formal_Charge:         -0.00999978
##########                     HBond_Acceptors:                   7
##########                        HBond_Donors:                   1
##########                         Heavy_Atoms:                  30
##########                          Grid_Score:          -29.411131
##########                     Grid_vdw_energy:          -29.238140
##########                      Grid_es_energy:           -0.172990
##########           Internal_energy_repulsive:           16.626150

@<TRIPOS>MOLECULE
ZINC000013809319
 55 57 1 0 0
SMALL
USER_CHARGES


@<TRIPOS>ATOM
      1 C1         -7.6416    1.2307   67.1039 C.3     1  ZINC000013809319   -0.1500
      2 C2         -7.1311    0.8814   65.7045 C.3     1  ZINC000013809319    0.0500
      3 O3         -8.1311    0.1384   65.0044 O.3     1  ZINC000013809319   -0.3100
      4 C4         -8.3252    0.4465   63.6963 C.ar    1  ZINC000013809319    0.1500
      5 C5         -9.6160    0.5594   63.1951 C.ar    1  ZINC000013809319   -0.2200
      6 C6         -9.8167    0.8723   61.8683 C.ar    1  ZINC000013809319   -0.0300
      7 C7         -8.7213    1.0762   61.0276 C.ar    1  ZINC000013809319   -0.1100
      8 C8         -8.9329    1.4130   59.6020 C.2     1  ZINC000013809319    0.2300
      9 C9         -8.5255    2.6413   59.1072 C.2     1  ZINC000013809319   -0.2900
     10 C10        -8.7453    2.9199   57.7470 C.2     1  ZINC000013809319    0.5300
     11 O11        -8.4025    3.9885   57.2677 O.2     1  ZINC000013809319   -0.5400
     12 N12        -9.3424    1.9826   56.9816 N.am    1  ZINC000013809319   -0.5100
     13 C13        -9.5831    2.2468   55.5609 C.3     1  ZINC000013809319    0.0700
     14 C14        -8.2908    2.1082   54.7982 C.2     1  ZINC000013809319    0.5000
     15 O15        -7.3413    1.5534   55.3097 O.2     1  ZINC000013809319   -0.5200
     16 N16        -8.1901    2.6007   53.5477 N.am    1  ZINC000013809319   -0.7200
     17 C17        -6.9343    2.4645   52.8056 C.3     1  ZINC000013809319    0.1300
     18 C18        -5.9983    3.6183   53.1710 C.3     1  ZINC000013809319   -0.0800
     19 C19        -4.5909    3.2737   52.7569 C.ar    1  ZINC000013809319   -0.1200
     20 C20        -4.3718    2.4653   51.6586 C.ar    1  ZINC000013809319   -0.0800
     21 C21        -3.0805    2.1483   51.2785 C.ar    1  ZINC000013809319   -0.1500
     22 C22        -2.0059    2.6397   51.9959 C.ar    1  ZINC000013809319   -0.0800
     23 C23        -2.2197    3.4491   53.0952 C.ar    1  ZINC000013809319   -0.2100
     24 C24        -3.5138    3.7729   53.4754 C.ar    1  ZINC000013809319    0.1300
     25 O25        -3.7268    4.5687   54.5561 O.3     1  ZINC000013809319   -0.3100
     26 C26        -2.5714    5.0379   55.2540 C.3     1  ZINC000013809319    0.0300
     27 C27        -9.7181    0.8040   57.5179 C.2     1  ZINC000013809319    0.3900
     28 N28        -9.5170    0.5272   58.7763 N.2     1  ZINC000013809319   -0.5300
     29 C29        -7.4258    0.9620   61.5346 C.ar    1  ZINC000013809319   -0.0500
     30 C30        -7.2326    0.6540   62.8636 C.ar    1  ZINC000013809319   -0.1600
     31 H31        -8.5481    1.8302   67.0209 H       1  ZINC000013809319    0.0700
     32 H32        -7.8614    0.3133   67.6499 H       1  ZINC000013809319    0.0700
     33 H33        -6.8788    1.7974   67.6379 H       1  ZINC000013809319    0.0800
     34 H34        -6.9113    1.7989   65.1585 H       1  ZINC000013809319    0.0600
     35 H35        -6.2246    0.2819   65.7875 H       1  ZINC000013809319    0.0600
     36 H36       -10.4632    0.4011   63.8461 H       1  ZINC000013809319    0.1300
     37 H37       -10.8205    0.9595   61.4792 H       1  ZINC000013809319    0.1400
     38 H38        -8.0508    3.3671   59.7509 H       1  ZINC000013809319    0.1600
     39 H39       -10.3103    1.5316   55.1765 H       1  ZINC000013809319    0.1300
     40 H40        -9.9697    3.2587   55.4399 H       1  ZINC000013809319    0.1300
     41 H41        -8.9492    3.0455   53.1391 H       1  ZINC000013809319    0.4000
     42 H42        -6.4610    1.5171   53.0633 H       1  ZINC000013809319    0.0700
     43 H43        -7.1403    2.4888   51.7355 H       1  ZINC000013809319    0.0700
     44 H44        -6.3179    4.5231   52.6543 H       1  ZINC000013809319    0.0800
     45 H45        -6.0298    3.7846   54.2479 H       1  ZINC000013809319    0.0800
     46 H46        -5.2097    2.0801   51.0965 H       1  ZINC000013809319    0.1300
     47 H47        -2.9114    1.5154   50.4197 H       1  ZINC000013809319    0.1300
     48 H48        -0.9984    2.3905   51.6973 H       1  ZINC000013809319    0.1300
     49 H49        -1.3798    3.8325   53.6555 H       1  ZINC000013809319    0.1300
     50 H50        -1.9506    5.6240   54.5764 H       1  ZINC000013809319    0.0600
     51 H51        -2.8817    5.6608   56.0930 H       1  ZINC000013809319    0.1000
     52 H52        -2.0006    4.1867   55.6251 H       1  ZINC000013809319    0.0600
     53 H53       -10.1946    0.0679   56.8874 H       1  ZINC000013809319    0.2000
     54 H54        -6.5760    1.1192   60.8869 H       1  ZINC000013809319    0.1400
     55 H55        -6.2305    0.5658   63.2567 H       1  ZINC000013809319    0.1400
@<TRIPOS>BOND
     1     1     2    1
     2     1    31    1
     3     1    32    1
     4     1    33    1
     5     2     3    1
     6     2    34    1
     7     2    35    1
     8     3     4    1
     9     4    30   ar
    10     4     5   ar
    11     5     6   ar
    12     5    36    1
    13     6     7   ar
    14     6    37    1
    15     7     8    1
    16     7    29   ar
    17     8    28    1
    18     8     9    2
    19     9    10    1
    20     9    38    1
    21    10    11    2
    22    10    12   am
    23    12    13    1
    24    12    27    1
    25    13    14    1
    26    13    39    1
    27    13    40    1
    28    14    15    2
    29    14    16   am
    30    16    17    1
    31    16    41    1
    32    17    18    1
    33    17    42    1
    34    17    43    1
    35    18    19    1
    36    18    44    1
    37    18    45    1
    38    19    24   ar
    39    19    20   ar
    40    20    21   ar
    41    20    46    1
    42    21    22   ar
    43    21    47    1
    44    22    23   ar
    45    22    48    1
    46    23    24   ar
    47    23    49    1
    48    24    25    1
    49    25    26    1
    50    26    50    1
    51    26    51    1
    52    26    52    1
    53    27    28    2
    54    27    53    1
    55    29    30   ar
    56    29    54    1
    57    30    55    1
@<TRIPOS>SUBSTRUCTURE
     1 ZINC000013809319        1 TEMP              0 ****  ****    0 ROOT


##########                                Name:    ZINC000474368324
##########                DOCK_Rotatable_Bonds:                   9
##########                         Heavy_Atoms:                  27
##########                    Molecular_Weight:             417.332
##########                DOCK_Rotatable_Bonds:                   9
##########                       Formal_Charge:        -1.63913e-07
##########                     HBond_Acceptors:                   8
##########                        HBond_Donors:                   1
##########                         Heavy_Atoms:                  27
##########                          Grid_Score:          -29.405479
##########                     Grid_vdw_energy:          -29.903669
##########                      Grid_es_energy:            0.498190
##########           Internal_energy_repulsive:           26.021173

@<TRIPOS>MOLECULE
ZINC000474368324
 53 54 1 0 0
SMALL
USER_CHARGES


@<TRIPOS>ATOM
      1 C1        -10.8964   -3.7981   57.8124 C.3     1  ZINC000474368324   -0.1500
      2 C2        -11.2381   -2.7066   58.8286 C.3     1  ZINC000474368324    0.0600
      3 O3        -10.2810   -1.6208   58.7130 O.3     1  ZINC000474368324   -0.3300
      4 C4        -10.4166   -0.5953   59.5684 C.2     1  ZINC000474368324    0.4700
      5 O5        -11.3100   -0.6011   60.3818 O.2     1  ZINC000474368324   -0.5100
      6 C6         -9.4544    0.5633   59.5142 C.3     1  ZINC000474368324   -0.0400
      7 C7         -9.5204    1.3426   60.8292 C.3     1  ZINC000474368324    0.0600
      8 O8         -9.3181    0.4472   61.9243 O.3     1  ZINC000474368324   -0.3700
      9 C9         -9.6043    1.0183   63.2026 C.3     1  ZINC000474368324    0.0300
     10 C10        -8.0329    0.0361   59.3051 C.3     1  ZINC000474368324   -0.1200
     11 C11        -7.0536    1.2140   59.2852 C.3     1  ZINC000474368324    0.1100
     12 N12        -7.4949    2.1789   58.2688 N.am    1  ZINC000474368324   -0.6300
     13 C13        -6.6506    2.5947   57.3043 C.2     1  ZINC000474368324    0.7100
     14 O14        -5.5114    2.1711   57.2693 O.2     1  ZINC000474368324   -0.5800
     15 N15        -7.0690    3.4802   56.3783 N.am    1  ZINC000474368324   -0.7400
     16 C16        -6.1512    3.9323   55.3298 C.3     1  ZINC000474368324    0.2000
     17 H17        -5.1551    4.0660   55.7515 H       1  ZINC000474368324    0.1100
     18 C18        -6.6456    5.2627   54.7581 C.3     1  ZINC000474368324   -0.1600
     19 C19        -6.0974    2.9024   54.2309 C.ar    1  ZINC000474368324   -0.0700
     20 C20        -7.1046    1.9633   54.1141 C.ar    1  ZINC000474368324   -0.1000
     21 C21        -7.0563    1.0183   53.1059 C.ar    1  ZINC000474368324   -0.0900
     22 C22        -6.0007    1.0118   52.2139 C.ar    1  ZINC000474368324   -0.1000
     23 C23        -4.9916    1.9511   52.3293 C.ar    1  ZINC000474368324   -0.0300
     24 Cl24       -3.6655    1.9433   51.2091 Cl      1  ZINC000474368324   -0.0400
     25 C25        -5.0427    2.9006   53.3356 C.ar    1  ZINC000474368324   -0.0300
     26 Cl26       -3.7776    4.0804   53.4815 Cl      1  ZINC000474368324   -0.0400
     27 C27        -8.8746    2.6814   58.3238 C.3     1  ZINC000474368324    0.1300
     28 C28        -9.8335    1.4871   58.3545 C.3     1  ZINC000474368324   -0.1200
     29 H29       -11.6149   -4.6132   57.8992 H       1  ZINC000474368324    0.0800
     30 H30       -10.9379   -3.3829   56.8054 H       1  ZINC000474368324    0.0700
     31 H31        -9.8929   -4.1759   58.0086 H       1  ZINC000474368324    0.0700
     32 H32       -12.2416   -2.3288   58.6324 H       1  ZINC000474368324    0.0700
     33 H33       -11.1966   -3.1218   59.8355 H       1  ZINC000474368324    0.0700
     34 H34        -8.7443    2.1079   60.8374 H       1  ZINC000474368324    0.0700
     35 H35       -10.4981    1.8157   60.9225 H       1  ZINC000474368324    0.0600
     36 H36        -8.9582    1.8803   63.3684 H       1  ZINC000474368324    0.0400
     37 H37       -10.6470    1.3344   63.2341 H       1  ZINC000474368324    0.0400
     38 H38        -9.4262    0.2758   63.9804 H       1  ZINC000474368324    0.0900
     39 H39        -7.7722   -0.6400   60.1193 H       1  ZINC000474368324    0.1000
     40 H40        -7.9789   -0.4980   58.3566 H       1  ZINC000474368324    0.0800
     41 H41        -7.0399    1.6945   60.2636 H       1  ZINC000474368324    0.0800
     42 H42        -6.0547    0.8545   59.0383 H       1  ZINC000474368324    0.0800
     43 H43        -7.9778    3.8181   56.4062 H       1  ZINC000474368324    0.3900
     44 H44        -7.6418    5.1290   54.3363 H       1  ZINC000474368324    0.0600
     45 H45        -6.6846    6.0076   55.5529 H       1  ZINC000474368324    0.0700
     46 H46        -5.9628    5.5991   53.9779 H       1  ZINC000474368324    0.0700
     47 H47        -7.9298    1.9674   54.8109 H       1  ZINC000474368324    0.1300
     48 H48        -7.8438    0.2847   53.0157 H       1  ZINC000474368324    0.1400
     49 H49        -5.9634    0.2731   51.4268 H       1  ZINC000474368324    0.1500
     50 H50        -9.0093    3.2815   59.2237 H       1  ZINC000474368324    0.0700
     51 H51        -9.0772    3.2900   57.4425 H       1  ZINC000474368324    0.1100
     52 H52        -9.7624    0.9393   57.4148 H       1  ZINC000474368324    0.0900
     53 H53       -10.8543    1.8436   58.4919 H       1  ZINC000474368324    0.0900
@<TRIPOS>BOND
     1     1     2    1
     2     1    29    1
     3     1    30    1
     4     1    31    1
     5     2     3    1
     6     2    32    1
     7     2    33    1
     8     3     4    1
     9     4     5    2
    10     4     6    1
    11     6    28    1
    12     6     7    1
    13     6    10    1
    14     7     8    1
    15     7    34    1
    16     7    35    1
    17     8     9    1
    18     9    36    1
    19     9    37    1
    20     9    38    1
    21    10    11    1
    22    10    39    1
    23    10    40    1
    24    11    12    1
    25    11    41    1
    26    11    42    1
    27    12    13   am
    28    12    27    1
    29    13    14    2
    30    13    15   am
    31    15    16    1
    32    15    43    1
    33    16    17    1
    34    16    18    1
    35    16    19    1
    36    18    44    1
    37    18    45    1
    38    18    46    1
    39    19    25   ar
    40    19    20   ar
    41    20    21   ar
    42    20    47    1
    43    21    22   ar
    44    21    48    1
    45    22    23   ar
    46    22    49    1
    47    23    24    1
    48    23    25   ar
    49    25    26    1
    50    27    28    1
    51    27    50    1
    52    27    51    1
    53    28    52    1
    54    28    53    1
@<TRIPOS>SUBSTRUCTURE
     1 ZINC000474368324        1 TEMP              0 ****  ****    0 ROOT


##########                                Name:    ZINC000265786263
##########                DOCK_Rotatable_Bonds:                   7
##########                         Heavy_Atoms:                  28
##########                    Molecular_Weight:             386.451
##########                DOCK_Rotatable_Bonds:                   7
##########                       Formal_Charge:           0.0499992
##########                     HBond_Acceptors:                   8
##########                        HBond_Donors:                   2
##########                         Heavy_Atoms:                  28
##########                          Grid_Score:          -29.381317
##########                     Grid_vdw_energy:          -29.147724
##########                      Grid_es_energy:           -0.233593
##########           Internal_energy_repulsive:           24.655088

@<TRIPOS>MOLECULE
ZINC000265786263
 54 57 1 0 0
SMALL
USER_CHARGES


@<TRIPOS>ATOM
      1 C1        -14.5617   -0.2457   59.4364 C.3     1  ZINC000265786263   -0.1500
      2 C2        -14.2764   -1.4823   58.5817 C.3     1  ZINC000265786263    0.1600
      3 C3        -15.3763   -2.5293   58.7687 C.3     1  ZINC000265786263   -0.1600
      4 C4        -16.4368   -2.6436   57.6719 C.3     1  ZINC000265786263   -0.1600
      5 C5        -15.3736   -3.7331   57.8245 C.3     1  ZINC000265786263   -0.1600
      6 N6        -14.1450   -1.1119   57.1620 N.am    1  ZINC000265786263   -0.7100
      7 C7        -12.8964   -1.4477   56.7907 C.2     1  ZINC000265786263    0.7100
      8 O8        -12.4551   -1.2760   55.6713 O.2     1  ZINC000265786263   -0.5400
      9 N9        -12.1946   -1.9919   57.7914 N.am    1  ZINC000265786263   -0.5600
     10 C10       -10.8081   -2.4496   57.6705 C.3     1  ZINC000265786263    0.1000
     11 C11        -9.9429   -1.3108   57.1956 C.2     1  ZINC000265786263    0.5100
     12 O12        -9.5771   -1.2681   56.0400 O.2     1  ZINC000265786263   -0.5300
     13 N13        -9.5756   -0.3397   58.0549 N.am    1  ZINC000265786263   -0.6100
     14 C14       -10.0016   -0.3762   59.4622 C.3     1  ZINC000265786263    0.1100
     15 C15        -8.7653   -0.1977   60.3499 C.3     1  ZINC000265786263    0.0400
     16 N16        -8.0504    1.0212   59.9488 N.3     1  ZINC000265786263   -0.5300
     17 C17        -6.9574    1.3220   60.8831 C.3     1  ZINC000265786263    0.0900
     18 C18        -7.5251    1.5727   62.2564 C.ar    1  ZINC000265786263   -0.0600
     19 C19        -7.9737    2.8348   62.5984 C.ar    1  ZINC000265786263   -0.1300
     20 C20        -8.4951    3.0681   63.8577 C.ar    1  ZINC000265786263   -0.1000
     21 C21        -8.5689    2.0401   64.7773 C.ar    1  ZINC000265786263   -0.1400
     22 C22        -8.1192    0.7725   64.4364 C.ar    1  ZINC000265786263    0.1100
     23 O23        -8.1911   -0.2407   65.3393 O.3     1  ZINC000265786263   -0.5000
     24 C24        -7.6018    0.5397   63.1707 C.ar    1  ZINC000265786263   -0.1200
     25 C25        -7.5516    0.9175   58.5711 C.3     1  ZINC000265786263    0.0400
     26 C26        -8.7330    0.7815   57.6119 C.3     1  ZINC000265786263    0.1200
     27 C27       -12.9203   -2.0662   58.9246 C.2     1  ZINC000265786263    0.5400
     28 O28       -12.5626   -2.5076   59.9956 O.2     1  ZINC000265786263   -0.4500
     29 H29       -13.7890    0.5030   59.2616 H       1  ZINC000265786263    0.0700
     30 H30       -15.5342    0.1659   59.1666 H       1  ZINC000265786263    0.0800
     31 H31       -14.5651   -0.5251   60.4900 H       1  ZINC000265786263    0.0900
     32 H32       -15.6954   -2.6971   59.7974 H       1  ZINC000265786263    0.1100
     33 H33       -17.4541   -2.8866   57.9788 H       1  ZINC000265786263    0.1000
     34 H34       -16.3510   -1.9729   56.8170 H       1  ZINC000265786263    0.1100
     35 H35       -14.5883   -3.7793   57.0700 H       1  ZINC000265786263    0.1000
     36 H36       -15.6914   -4.6929   58.2319 H       1  ZINC000265786263    0.1000
     37 H37       -14.8262   -0.7056   56.6036 H       1  ZINC000265786263    0.4400
     38 H38       -10.4535   -2.7948   58.6418 H       1  ZINC000265786263    0.1300
     39 H39       -10.7571   -3.2685   56.9531 H       1  ZINC000265786263    0.1300
     40 H40       -10.7083    0.4316   59.6520 H       1  ZINC000265786263    0.0900
     41 H41       -10.4717   -1.3358   59.6777 H       1  ZINC000265786263    0.0900
     42 H42        -9.0748   -0.1118   61.3915 H       1  ZINC000265786263    0.0900
     43 H43        -8.1077   -1.0595   60.2353 H       1  ZINC000265786263    0.0400
     44 H44        -6.2703    0.4766   60.9227 H       1  ZINC000265786263    0.0900
     45 H45        -6.4227    2.2090   60.5434 H       1  ZINC000265786263    0.0500
     46 H46        -7.9166    3.6400   61.8808 H       1  ZINC000265786263    0.1200
     47 H47        -8.8447    4.0550   64.1226 H       1  ZINC000265786263    0.1300
     48 H48        -8.9759    2.2230   65.7608 H       1  ZINC000265786263    0.1300
     49 H49        -8.5690    0.0176   66.1911 H       1  ZINC000265786263    0.3900
     50 H50        -7.2512   -0.4461   62.9031 H       1  ZINC000265786263    0.1300
     51 H51        -6.9808    1.8122   58.3225 H       1  ZINC000265786263    0.1000
     52 H52        -6.9109    0.0403   58.4812 H       1  ZINC000265786263    0.0400
     53 H53        -8.3660    0.5896   56.6036 H       1  ZINC000265786263    0.1000
     54 H54        -9.3206    1.6996   57.6221 H       1  ZINC000265786263    0.0800
@<TRIPOS>BOND
     1     1     2    1
     2     1    29    1
     3     1    30    1
     4     1    31    1
     5     2    27    1
     6     2     3    1
     7     2     6    1
     8     3     5    1
     9     3     4    1
    10     3    32    1
    11     4     5    1
    12     4    33    1
    13     4    34    1
    14     5    35    1
    15     5    36    1
    16     6     7   am
    17     6    37    1
    18     7     8    2
    19     7     9   am
    20     9    10    1
    21     9    27   am
    22    10    11    1
    23    10    38    1
    24    10    39    1
    25    11    12    2
    26    11    13   am
    27    13    26    1
    28    13    14    1
    29    14    15    1
    30    14    40    1
    31    14    41    1
    32    15    16    1
    33    15    42    1
    34    15    43    1
    35    16    17    1
    36    16    25    1
    37    17    18    1
    38    17    44    1
    39    17    45    1
    40    18    24   ar
    41    18    19   ar
    42    19    20   ar
    43    19    46    1
    44    20    21   ar
    45    20    47    1
    46    21    22   ar
    47    21    48    1
    48    22    23    1
    49    22    24   ar
    50    23    49    1
    51    24    50    1
    52    25    26    1
    53    25    51    1
    54    25    52    1
    55    26    53    1
    56    26    54    1
    57    27    28    2
@<TRIPOS>SUBSTRUCTURE
     1 ZINC000265786263        1 TEMP              0 ****  ****    0 ROOT


##########                                Name:    ZINC000963156778
##########                DOCK_Rotatable_Bonds:                   6
##########                         Heavy_Atoms:                  24
##########                    Molecular_Weight:             349.414
##########                DOCK_Rotatable_Bonds:                   6
##########                       Formal_Charge:         -0.00999984
##########                     HBond_Acceptors:                   9
##########                        HBond_Donors:                   2
##########                         Heavy_Atoms:                  24
##########                          Grid_Score:          -29.374170
##########                     Grid_vdw_energy:          -26.142155
##########                      Grid_es_energy:           -3.232016
##########           Internal_energy_repulsive:            8.075214

@<TRIPOS>MOLECULE
ZINC000963156778
 43 46 1 0 0
SMALL
USER_CHARGES


@<TRIPOS>ATOM
      1 C1        -15.2248   -3.3995   57.3113 C.3     1  ZINC000963156778   -0.0800
      2 C2        -15.1868   -2.0622   58.0051 C.2     1  ZINC000963156778    0.0300
      3 C3        -14.0467   -1.4610   58.4179 C.2     1  ZINC000963156778   -0.2600
      4 C4        -12.6328   -1.9651   58.2838 C.3     1  ZINC000963156778    0.1300
      5 N5        -11.7201   -0.8255   58.1210 N.3     1  ZINC000963156778   -0.5000
      6 C6        -12.0053   -0.0906   56.8619 C.3     1  ZINC000963156778    0.0600
      7 C7        -10.7038    0.6824   56.5593 C.3     1  ZINC000963156778   -0.1700
      8 H8        -10.7460    1.7713   56.5832 H       1  ZINC000963156778    0.1200
      9 C9         -9.5927   -0.1039   57.2849 C.3     1  ZINC000963156778   -0.1700
     10 H10        -8.7996    0.4002   57.8372 H       1  ZINC000963156778    0.1200
     11 C11       -10.3163   -1.2860   57.9649 C.3     1  ZINC000963156778    0.0600
     12 C12        -9.6312   -0.0123   55.7179 C.3     1  ZINC000963156778    0.1200
     13 H13        -9.9195   -0.9089   55.1692 H       1  ZINC000963156778    0.1400
     14 N14        -8.6261    0.8308   55.0659 N.am    1  ZINC000963156778   -0.7000
     15 C15        -8.9268    1.4747   53.9207 C.2     1  ZINC000963156778    0.5100
     16 O16       -10.0300    1.3573   53.4308 O.2     1  ZINC000963156778   -0.5000
     17 C17        -7.8922    2.3405   53.2490 C.3     1  ZINC000963156778   -0.1300
     18 C18        -6.5475    1.6109   53.2356 C.3     1  ZINC000963156778   -0.1100
     19 H19        -6.2574    1.3249   54.2467 H       1  ZINC000963156778    0.1300
     20 C20        -5.4592    2.4904   52.5870 C.3     1  ZINC000963156778   -0.1600
     21 C21        -5.0197    1.6824   51.3856 C.2     1  ZINC000963156778    0.5300
     22 O22        -4.1674    2.0141   50.5898 O.2     1  ZINC000963156778   -0.4800
     23 N23        -5.7209    0.5427   51.3408 N.am    1  ZINC000963156778   -0.6900
     24 C24        -6.6097    0.3961   52.3358 C.2     1  ZINC000963156778    0.5200
     25 O25        -7.3449   -0.5562   52.4859 O.2     1  ZINC000963156778   -0.4500
     26 S26       -14.5815    0.0117   59.1303 S.3     1  ZINC000963156778    0.4500
     27 N27       -16.1060   -0.2283   58.8695 N.2     1  ZINC000963156778   -0.2900
     28 N28       -16.2592   -1.3453   58.2726 N.2     1  ZINC000963156778   -0.2400
     29 H29       -15.1474   -3.2523   56.2341 H       1  ZINC000963156778    0.0900
     30 H30       -14.3906   -4.0111   57.6552 H       1  ZINC000963156778    0.0800
     31 H31       -16.1638   -3.9023   57.5428 H       1  ZINC000963156778    0.0800
     32 H32       -12.3599   -2.5242   59.1788 H       1  ZINC000963156778    0.1000
     33 H33       -12.5603   -2.6160   57.4126 H       1  ZINC000963156778    0.0700
     34 H34       -12.2285   -0.7898   56.0558 H       1  ZINC000963156778    0.0600
     35 H35       -12.8344    0.6022   57.0055 H       1  ZINC000963156778    0.0800
     36 H36        -9.8736   -1.4929   58.9392 H       1  ZINC000963156778    0.1000
     37 H37       -10.2750   -2.1720   57.3315 H       1  ZINC000963156778    0.0500
     38 H38        -7.7441    0.9255   55.4583 H       1  ZINC000963156778    0.4000
     39 H39        -8.2025    2.5495   52.2253 H       1  ZINC000963156778    0.1000
     40 H40        -7.7917    3.2776   53.7967 H       1  ZINC000963156778    0.1200
     41 H41        -5.8759    3.4477   52.2738 H       1  ZINC000963156778    0.1200
     42 H42        -4.6265    2.6397   53.2744 H       1  ZINC000963156778    0.1300
     43 H43        -5.5961   -0.1234   50.6469 H       1  ZINC000963156778    0.4200
@<TRIPOS>BOND
     1     1     2    1
     2     1    29    1
     3     1    30    1
     4     1    31    1
     5     2    28    1
     6     2     3    2
     7     3     4    1
     8     3    26    1
     9     4     5    1
    10     4    32    1
    11     4    33    1
    12     5    11    1
    13     5     6    1
    14     6     7    1
    15     6    34    1
    16     6    35    1
    17     7     8    1
    18     7    12    1
    19     7     9    1
    20     9    10    1
    21     9    11    1
    22     9    12    1
    23    11    36    1
    24    11    37    1
    25    12    13    1
    26    12    14    1
    27    14    15   am
    28    14    38    1
    29    15    16    2
    30    15    17    1
    31    17    18    1
    32    17    39    1
    33    17    40    1
    34    18    19    1
    35    18    24    1
    36    18    20    1
    37    20    21    1
    38    20    41    1
    39    20    42    1
    40    21    22    2
    41    21    23   am
    42    23    24   am
    43    23    43    1
    44    24    25    2
    45    26    27    1
    46    27    28    2
@<TRIPOS>SUBSTRUCTURE
     1 ZINC000963156778        1 TEMP              0 ****  ****    0 ROOT


##########                                Name:    ZINC000751548479
##########                DOCK_Rotatable_Bonds:                   9
##########                         Heavy_Atoms:                  27
##########                    Molecular_Weight:             389.407
##########                DOCK_Rotatable_Bonds:                   9
##########                       Formal_Charge:           0.0199995
##########                     HBond_Acceptors:                   9
##########                        HBond_Donors:                   2
##########                         Heavy_Atoms:                  27
##########                          Grid_Score:          -29.370792
##########                     Grid_vdw_energy:          -29.710714
##########                      Grid_es_energy:            0.339923
##########           Internal_energy_repulsive:           10.672363

@<TRIPOS>MOLECULE
ZINC000751548479
 43 44 1 0 0
SMALL
USER_CHARGES


@<TRIPOS>ATOM
      1 C1          1.5294    3.3390   57.6840 C.3     1  ZINC000751548479   -0.1600
      2 C2          0.8165    2.0997   58.2290 C.3     1  ZINC000751548479    0.0800
      3 O3         -0.5798    2.4132   58.4741 O.3     1  ZINC000751548479   -0.3600
      4 C4         -1.3691    2.5724   57.3947 C.2     1  ZINC000751548479    0.6500
      5 O5         -1.1074    1.9920   56.3598 O.2     1  ZINC000751548479   -0.5400
      6 N6         -2.4492    3.3756   57.4624 N.am    1  ZINC000751548479   -0.6500
      7 C7         -3.2678    3.5408   56.3432 C.ar    1  ZINC000751548479    0.2000
      8 C8         -2.7398    4.0464   55.1640 C.ar    1  ZINC000751548479   -0.1000
      9 C9         -3.5477    4.2103   54.0566 C.ar    1  ZINC000751548479   -0.1000
     10 C10        -4.8951    3.8707   54.1136 C.ar    1  ZINC000751548479    0.1300
     11 N11        -5.7060    4.0409   52.9859 N.am    1  ZINC000751548479   -1.0500
     12 S12        -6.0300    2.7527   51.9970 S.o2    1  ZINC000751548479    2.6800
     13 O13        -6.9857    3.2058   51.0480 O.2     1  ZINC000751548479   -0.9500
     14 O14        -4.7725    2.2014   51.6311 O.2     1  ZINC000751548479   -0.9400
     15 C15        -6.8414    1.5339   52.9773 C.2     1  ZINC000751548479   -0.7500
     16 C16        -7.9291    1.8528   53.6650 C.2     1  ZINC000751548479    0.0700
     17 C17        -8.6107    0.8301   54.4858 C.ar    1  ZINC000751548479   -0.1100
     18 C18        -9.2397    1.1938   55.6773 C.ar    1  ZINC000751548479   -0.0600
     19 C19        -9.8748    0.2355   56.4394 C.ar    1  ZINC000751548479   -0.1600
     20 C20        -9.8886   -1.0865   56.0240 C.ar    1  ZINC000751548479    0.1200
     21 F21       -10.5118   -2.0213   56.7743 F       1  ZINC000751548479   -0.1300
     22 C22        -9.2660   -1.4528   54.8415 C.ar    1  ZINC000751548479   -0.1600
     23 C23        -8.6326   -0.5016   54.0693 C.ar    1  ZINC000751548479   -0.0500
     24 C24        -5.4363    3.3640   55.2833 C.ar    1  ZINC000751548479   -0.0600
     25 C25        -4.6247    3.1906   56.4063 C.ar    1  ZINC000751548479   -0.0300
     26 C26        -5.1768    2.6668   57.6193 C.1     1  ZINC000751548479    0.2500
     27 N27        -5.6150    2.2513   58.5815 N.1     1  ZINC000751548479   -0.4000
     28 H28         1.4608    4.1472   58.4122 H       1  ZINC000751548479    0.0700
     29 H29         2.5777    3.1036   57.5001 H       1  ZINC000751548479    0.0900
     30 H30         1.0577    3.6489   56.7516 H       1  ZINC000751548479    0.0700
     31 H31         0.8852    1.2915   57.5009 H       1  ZINC000751548479    0.0800
     32 H32         1.2884    1.7897   59.1614 H       1  ZINC000751548479    0.0800
     33 H33        -2.6580    3.8390   58.2886 H       1  ZINC000751548479    0.4200
     34 H34        -1.6944    4.3127   55.1125 H       1  ZINC000751548479    0.1600
     35 H35        -3.1312    4.6047   53.1415 H       1  ZINC000751548479    0.1700
     36 H36        -6.0781    4.9135   52.7834 H       1  ZINC000751548479    0.4300
     37 H37        -6.4527    0.5272   53.0179 H       1  ZINC000751548479    0.1700
     38 H38        -8.3170    2.8600   53.6254 H       1  ZINC000751548479    0.1500
     39 H39        -9.2289    2.2237   56.0023 H       1  ZINC000751548479    0.1400
     40 H40       -10.3619    0.5158   57.3617 H       1  ZINC000751548479    0.1400
     41 H41        -9.2800   -2.4844   54.5221 H       1  ZINC000751548479    0.1400
     42 H42        -8.1479   -0.7881   53.1477 H       1  ZINC000751548479    0.1400
     43 H43        -6.4828    3.1008   55.3259 H       1  ZINC000751548479    0.1500
@<TRIPOS>BOND
     1     1     2    1
     2     1    28    1
     3     1    29    1
     4     1    30    1
     5     2     3    1
     6     2    31    1
     7     2    32    1
     8     3     4    1
     9     4     5    2
    10     4     6   am
    11     6     7    1
    12     6    33    1
    13     7    25   ar
    14     7     8   ar
    15     8     9   ar
    16     8    34    1
    17     9    10   ar
    18     9    35    1
    19    10    11    1
    20    10    24   ar
    21    11    12   am
    22    11    36    1
    23    12    13    2
    24    12    14    2
    25    12    15    1
    26    15    16    2
    27    15    37    1
    28    16    17    1
    29    16    38    1
    30    17    23   ar
    31    17    18   ar
    32    18    19   ar
    33    18    39    1
    34    19    20   ar
    35    19    40    1
    36    20    21    1
    37    20    22   ar
    38    22    23   ar
    39    22    41    1
    40    23    42    1
    41    24    25   ar
    42    24    43    1
    43    25    26    1
    44    26    27    3
@<TRIPOS>SUBSTRUCTURE
     1 ZINC000751548479        1 TEMP              0 ****  ****    0 ROOT


##########                                Name:    ZINC000031496632
##########                DOCK_Rotatable_Bonds:                   8
##########                         Heavy_Atoms:                  30
##########                    Molecular_Weight:             423.539
##########                DOCK_Rotatable_Bonds:                   8
##########                       Formal_Charge:          -0.0100009
##########                     HBond_Acceptors:                   8
##########                        HBond_Donors:                   1
##########                         Heavy_Atoms:                  30
##########                          Grid_Score:          -29.359957
##########                     Grid_vdw_energy:          -28.556009
##########                      Grid_es_energy:           -0.803948
##########           Internal_energy_repulsive:            8.926799

@<TRIPOS>MOLECULE
ZINC000031496632
 55 58 1 0 0
SMALL
USER_CHARGES


@<TRIPOS>ATOM
      1 C1        -15.1350   -2.4424   57.9829 C.3     1  ZINC000031496632   -0.1600
      2 C2        -13.9964   -1.5002   58.3789 C.3     1  ZINC000031496632    0.1600
      3 C3        -13.8373   -1.5041   59.9006 C.3     1  ZINC000031496632   -0.1600
      4 N4        -12.7496   -1.9522   57.7565 N.pl3   1  ZINC000031496632   -0.3900
      5 N5        -12.3342   -3.2830   57.6488 N.2     1  ZINC000031496632   -0.2300
      6 C6        -11.1827   -3.3448   57.0437 C.2     1  ZINC000031496632    0.0800
      7 C7        -10.7808   -1.9814   56.7156 C.ar    1  ZINC000031496632   -0.2100
      8 C8         -9.6682   -1.4191   56.0793 C.ar    1  ZINC000031496632    0.0100
      9 C9         -9.6254   -0.0406   55.9409 C.ar    1  ZINC000031496632    0.0500
     10 N10        -8.5348    0.5735   55.3114 N.am    1  ZINC000031496632   -0.6600
     11 C11        -8.6335    0.9698   54.0270 C.2     1  ZINC000031496632    0.5500
     12 O12        -9.6695    0.7942   53.4144 O.2     1  ZINC000031496632   -0.4900
     13 C13        -7.4864    1.6157   53.3648 C.ar    1  ZINC000031496632   -0.1300
     14 C14        -6.6783    0.8865   52.4889 C.ar    1  ZINC000031496632   -0.0600
     15 C15        -5.6072    1.4962   51.8731 C.ar    1  ZINC000031496632   -0.1400
     16 C16        -5.3251    2.8311   52.1175 C.ar    1  ZINC000031496632   -0.0600
     17 C17        -6.1126    3.5652   52.9800 C.ar    1  ZINC000031496632   -0.1500
     18 C18        -7.2017    2.9700   53.6058 C.ar    1  ZINC000031496632   -0.0600
     19 S19        -8.2101    3.9048   54.7076 S.3     1  ZINC000031496632    0.0900
     20 C20        -8.8088    5.2607   53.6618 C.3     1  ZINC000031496632   -0.2000
     21 C21        -9.9264    4.7613   52.7828 C.2     1  ZINC000031496632    0.5500
     22 O22       -10.9124    4.2609   53.2811 O.2     1  ZINC000031496632   -0.5200
     23 N23        -9.8300    4.8705   51.4430 N.am    1  ZINC000031496632   -0.6200
     24 C24       -10.8445    4.4342   50.4725 C.3     1  ZINC000031496632    0.1000
     25 C25       -10.2904    4.7349   49.0639 C.3     1  ZINC000031496632   -0.1300
     26 C26        -8.7586    4.8043   49.3006 C.3     1  ZINC000031496632   -0.1300
     27 C27        -8.6925    5.4532   50.7081 C.3     1  ZINC000031496632    0.1000
     28 C28       -10.6781    0.7286   56.4338 C.ar    1  ZINC000031496632    0.1600
     29 N29       -11.7124    0.1763   57.0282 N.ar    1  ZINC000031496632   -0.4900
     30 C30       -11.8088   -1.1383   57.1824 C.ar    1  ZINC000031496632    0.3000
     31 H31       -16.0627   -2.1062   58.4461 H       1  ZINC000031496632    0.0800
     32 H32       -15.2484   -2.4397   56.8988 H       1  ZINC000031496632    0.0600
     33 H33       -14.9052   -3.4526   58.3216 H       1  ZINC000031496632    0.0700
     34 H34       -14.2263   -0.4900   58.0403 H       1  ZINC000031496632    0.1100
     35 H35       -14.7650   -1.1679   60.3638 H       1  ZINC000031496632    0.0800
     36 H36       -13.6075   -2.5143   60.2394 H       1  ZINC000031496632    0.0700
     37 H37       -13.0262   -0.8329   60.1829 H       1  ZINC000031496632    0.0600
     38 H38       -10.6253   -4.2437   56.8247 H       1  ZINC000031496632    0.2000
     39 H39        -8.8669   -2.0406   55.7076 H       1  ZINC000031496632    0.1500
     40 H40        -7.7086    0.7135   55.7999 H       1  ZINC000031496632    0.4100
     41 H41        -6.8928   -0.1540   52.2951 H       1  ZINC000031496632    0.1300
     42 H42        -4.9838    0.9308   51.1962 H       1  ZINC000031496632    0.1300
     43 H43        -4.4829    3.2994   51.6298 H       1  ZINC000031496632    0.1300
     44 H44        -5.8855    4.6047   53.1655 H       1  ZINC000031496632    0.1300
     45 H45        -9.1764    6.0705   54.2920 H       1  ZINC000031496632    0.1100
     46 H46        -7.9926    5.6268   53.0390 H       1  ZINC000031496632    0.1100
     47 H47       -11.0239    3.3643   50.5796 H       1  ZINC000031496632    0.0700
     48 H48       -11.7713    4.9854   50.6319 H       1  ZINC000031496632    0.0700
     49 H49       -10.5378    3.9297   48.3721 H       1  ZINC000031496632    0.0900
     50 H50       -10.6676    5.6895   48.6970 H       1  ZINC000031496632    0.0800
     51 H51        -8.3185    3.8071   49.3053 H       1  ZINC000031496632    0.0800
     52 H52        -8.2768    5.4388   48.5567 H       1  ZINC000031496632    0.0900
     53 H53        -8.7974    6.5354   50.6322 H       1  ZINC000031496632    0.0700
     54 H54        -7.7550    5.1957   51.2008 H       1  ZINC000031496632    0.0800
     55 H55       -10.6431    1.8026   56.3251 H       1  ZINC000031496632    0.1700
@<TRIPOS>BOND
     1     1     2    1
     2     1    31    1
     3     1    32    1
     4     1    33    1
     5     2     3    1
     6     2     4    1
     7     2    34    1
     8     3    35    1
     9     3    36    1
    10     3    37    1
    11     4    30    1
    12     4     5    1
    13     5     6    2
    14     6     7    1
    15     6    38    1
    16     7    30   ar
    17     7     8   ar
    18     8     9   ar
    19     8    39    1
    20     9    10    1
    21     9    28   ar
    22    10    11   am
    23    10    40    1
    24    11    12    2
    25    11    13    1
    26    13    18   ar
    27    13    14   ar
    28    14    15   ar
    29    14    41    1
    30    15    16   ar
    31    15    42    1
    32    16    17   ar
    33    16    43    1
    34    17    18   ar
    35    17    44    1
    36    18    19    1
    37    19    20    1
    38    20    21    1
    39    20    45    1
    40    20    46    1
    41    21    22    2
    42    21    23   am
    43    23    27    1
    44    23    24    1
    45    24    25    1
    46    24    47    1
    47    24    48    1
    48    25    26    1
    49    25    49    1
    50    25    50    1
    51    26    27    1
    52    26    51    1
    53    26    52    1
    54    27    53    1
    55    27    54    1
    56    28    29   ar
    57    28    55    1
    58    29    30   ar
@<TRIPOS>SUBSTRUCTURE
     1 ZINC000031496632        1 TEMP              0 ****  ****    0 ROOT


##########                                Name:    ZINC000937331732
##########                DOCK_Rotatable_Bonds:                   6
##########                         Heavy_Atoms:                  24
##########                    Molecular_Weight:              333.35
##########                DOCK_Rotatable_Bonds:                   6
##########                       Formal_Charge:          -0.0299999
##########                     HBond_Acceptors:                  10
##########                        HBond_Donors:                   1
##########                         Heavy_Atoms:                  24
##########                          Grid_Score:          -29.349346
##########                     Grid_vdw_energy:          -27.222916
##########                      Grid_es_energy:           -2.126431
##########           Internal_energy_repulsive:           25.095598

@<TRIPOS>MOLECULE
ZINC000937331732
 43 45 1 0 0
SMALL
USER_CHARGES


@<TRIPOS>ATOM
      1 C1         -9.7363    0.8443   56.4911 C.3     1  ZINC000937331732    0.0600
      2 N2        -10.2989   -0.4586   56.1273 N.am    1  ZINC000937331732   -0.6100
      3 C3        -10.5876   -0.7320   54.8396 C.2     1  ZINC000937331732    0.5000
      4 O4        -11.0519   -1.8112   54.5382 O.2     1  ZINC000937331732   -0.5200
      5 C5        -10.3334    0.3029   53.7741 C.3     1  ZINC000937331732    0.1500
      6 N6         -8.9675    0.1548   53.2655 N.am    1  ZINC000937331732   -0.4400
      7 N7         -8.3620   -1.0377   52.8457 N.2     1  ZINC000937331732   -0.2800
      8 C8         -7.1555   -0.7648   52.4660 C.2     1  ZINC000937331732    0.2600
      9 N9         -6.9358    0.5822   52.6205 N.am    1  ZINC000937331732   -0.5600
     10 C10        -5.6935    1.2907   52.3028 C.3     1  ZINC000937331732    0.1000
     11 C11        -8.0609    1.1420   53.1087 C.2     1  ZINC000937331732    0.6500
     12 O12        -8.2261    2.3207   53.3681 O.2     1  ZINC000937331732   -0.5500
     13 C13       -10.5477   -1.4641   57.1634 C.3     1  ZINC000937331732    0.1300
     14 H14        -9.9095   -2.3351   57.0145 H       1  ZINC000937331732    0.1200
     15 C15       -10.3326   -0.8609   58.5767 C.3     1  ZINC000937331732   -0.1500
     16 C16       -11.2515   -1.7596   59.4414 C.3     1  ZINC000937331732    0.1000
     17 N17       -12.4275   -2.0244   58.5925 N.am    1  ZINC000937331732   -0.6000
     18 C18       -13.6575   -2.3527   59.0348 C.2     1  ZINC000937331732    0.6200
     19 O19       -13.8684   -2.4511   60.2284 O.2     1  ZINC000937331732   -0.5400
     20 C20       -14.7474   -2.5927   58.0716 C.2     1  ZINC000937331732    0.1400
     21 N21       -16.0042   -2.8388   58.3750 N.2     1  ZINC000937331732   -0.4400
     22 C22       -16.6993   -3.0021   57.2516 C.2     1  ZINC000937331732   -0.0300
     23 C23       -15.8545   -2.8546   56.2017 C.2     1  ZINC000937331732   -0.0200
     24 N24       -14.6273   -2.5921   56.7102 N.pl3   1  ZINC000937331732   -0.5200
     25 C25       -12.0354   -1.8737   57.1805 C.3     1  ZINC000937331732    0.1000
     26 H26       -10.5452    1.5397   56.7149 H       1  ZINC000937331732    0.0700
     27 H27        -9.0997    0.7329   57.3689 H       1  ZINC000937331732    0.0800
     28 H28        -9.1453    1.2296   55.6602 H       1  ZINC000937331732    0.0800
     29 H29       -11.0421    0.1654   52.9575 H       1  ZINC000937331732    0.1300
     30 H30       -10.4569    1.2992   54.1986 H       1  ZINC000937331732    0.1300
     31 H31        -6.4383   -1.4794   52.0895 H       1  ZINC000937331732    0.2300
     32 H32        -4.9586    0.5821   51.9208 H       1  ZINC000937331732    0.1000
     33 H33        -5.8918    2.0511   51.5474 H       1  ZINC000937331732    0.0800
     34 H34        -5.3057    1.7660   53.2038 H       1  ZINC000937331732    0.0800
     35 H35        -9.2917   -0.9535   58.8866 H       1  ZINC000937331732    0.0900
     36 H36       -10.6580    0.1788   58.6114 H       1  ZINC000937331732    0.0800
     37 H37       -10.7451   -2.6923   59.6897 H       1  ZINC000937331732    0.0800
     38 H38       -11.5494   -1.2352   60.3493 H       1  ZINC000937331732    0.1100
     39 H39       -17.7560   -3.2157   57.1876 H       1  ZINC000937331732    0.1800
     40 H40       -16.1126   -2.9289   55.1557 H       1  ZINC000937331732    0.1900
     41 H41       -13.8146   -2.4383   56.2036 H       1  ZINC000937331732    0.4300
     42 H42       -12.6371   -1.0964   56.7097 H       1  ZINC000937331732    0.0800
     43 H43       -12.1708   -2.8193   56.6554 H       1  ZINC000937331732    0.0800
@<TRIPOS>BOND
     1     1     2    1
     2     1    26    1
     3     1    27    1
     4     1    28    1
     5     2     3   am
     6     2    13    1
     7     3     4    2
     8     3     5    1
     9     5     6    1
    10     5    29    1
    11     5    30    1
    12     6    11   am
    13     6     7    1
    14     7     8    2
    15     8     9    1
    16     8    31    1
    17     9    10    1
    18     9    11   am
    19    10    32    1
    20    10    33    1
    21    10    34    1
    22    11    12    2
    23    13    14    1
    24    13    25    1
    25    13    15    1
    26    15    16    1
    27    15    35    1
    28    15    36    1
    29    16    17    1
    30    16    37    1
    31    16    38    1
    32    17    18   am
    33    17    25    1
    34    18    19    2
    35    18    20    1
    36    20    24    1
    37    20    21    2
    38    21    22    1
    39    22    23    2
    40    22    39    1
    41    23    24    1
    42    23    40    1
    43    24    41    1
    44    25    42    1
    45    25    43    1
@<TRIPOS>SUBSTRUCTURE
     1 ZINC000937331732        1 TEMP              0 ****  ****    0 ROOT


##########                                Name:    ZINC000541000201
##########                DOCK_Rotatable_Bonds:                  10
##########                         Heavy_Atoms:                  30
##########                    Molecular_Weight:             420.413
##########                DOCK_Rotatable_Bonds:                  10
##########                       Formal_Charge:               -0.03
##########                     HBond_Acceptors:                   9
##########                        HBond_Donors:                   1
##########                         Heavy_Atoms:                  30
##########                          Grid_Score:          -29.335365
##########                     Grid_vdw_energy:          -29.402630
##########                      Grid_es_energy:            0.067264
##########           Internal_energy_repulsive:           15.282225

@<TRIPOS>MOLECULE
ZINC000541000201
 52 54 1 0 0
SMALL
USER_CHARGES


@<TRIPOS>ATOM
      1 C1         -9.5267   -2.5238   57.0829 C.3     1  ZINC000541000201    0.0400
      2 O2         -9.4475   -1.2997   56.3059 O.3     1  ZINC000541000201   -0.3500
      3 C3        -10.1197   -1.2707   55.1444 C.2     1  ZINC000541000201    0.4500
      4 O4        -10.7326   -2.2448   54.7766 O.2     1  ZINC000541000201   -0.4900
      5 C5        -10.1098   -0.0232   54.2991 C.3     1  ZINC000541000201    0.2100
      6 H6        -10.3989    0.8320   54.9101 H       1  ZINC000541000201    0.1400
      7 N7        -11.0580   -0.1754   53.1927 N.am    1  ZINC000541000201   -0.7100
      8 C8        -11.6634    0.9093   52.6699 C.2     1  ZINC000541000201    0.5800
      9 O9        -11.4237    2.0140   53.1173 O.2     1  ZINC000541000201   -0.5300
     10 C10       -12.6174    0.7560   51.5539 C.ar    1  ZINC000541000201   -0.2300
     11 C11       -12.8935   -0.5122   51.0226 C.ar    1  ZINC000541000201    0.0200
     12 C12       -13.7924   -0.6043   49.9797 C.ar    1  ZINC000541000201   -0.2000
     13 C13       -14.3908    0.5536   49.4931 C.ar    1  ZINC000541000201    0.3500
     14 O14       -15.2743    0.4691   48.4693 O.3     1  ZINC000541000201   -0.2900
     15 C15       -15.8717    1.6891   48.0256 C.3     1  ZINC000541000201    0.0800
     16 C16       -14.8002    2.6272   47.4165 C.3     1  ZINC000541000201   -0.1400
     17 C17       -15.6356    3.5416   46.4862 C.3     1  ZINC000541000201   -0.1200
     18 C18       -16.6959    2.5984   45.8814 C.3     1  ZINC000541000201   -0.1200
     19 C19       -16.8461    1.4205   46.8602 C.3     1  ZINC000541000201   -0.1200
     20 N20       -14.1096    1.7372   50.0166 N.ar    1  ZINC000541000201   -0.5400
     21 C21       -13.2625    1.8704   51.0155 C.ar    1  ZINC000541000201    0.1800
     22 C22        -8.7253    0.1988   53.7472 C.ar    1  ZINC000541000201   -0.1300
     23 C23        -7.9852    1.2919   54.1590 C.ar    1  ZINC000541000201   -0.0700
     24 C24        -6.7158    1.4976   53.6544 C.ar    1  ZINC000541000201   -0.1300
     25 C25        -6.1834    0.6062   52.7343 C.ar    1  ZINC000541000201    0.1200
     26 O26        -4.9346    0.8063   52.2370 O.3     1  ZINC000541000201   -0.3200
     27 C27        -4.7884    1.8184   51.2388 C.3     1  ZINC000541000201    0.4100
     28 F28        -6.0459    2.3386   50.9143 F       1  ZINC000541000201   -0.2000
     29 F29        -3.9724    2.8433   51.7300 F       1  ZINC000541000201   -0.2000
     30 C30        -6.9278   -0.4899   52.3231 C.ar    1  ZINC000541000201   -0.1900
     31 C31        -8.1949   -0.6938   52.8342 C.ar    1  ZINC000541000201   -0.0500
     32 H32        -8.9403   -2.4136   57.9952 H       1  ZINC000541000201    0.1000
     33 H33       -10.5666   -2.7235   57.3414 H       1  ZINC000541000201    0.0600
     34 H34        -9.1325   -3.3531   56.4956 H       1  ZINC000541000201    0.0600
     35 H35       -11.2502   -1.0570   52.8365 H       1  ZINC000541000201    0.4100
     36 H36       -12.4141   -1.3948   51.4195 H       1  ZINC000541000201    0.1600
     37 H37       -14.0286   -1.5648   49.5458 H       1  ZINC000541000201    0.1500
     38 H38       -16.3887    2.1814   48.8493 H       1  ZINC000541000201    0.1000
     39 H39       -14.3112    3.2122   48.1953 H       1  ZINC000541000201    0.0700
     40 H40       -14.0690    2.0575   46.8431 H       1  ZINC000541000201    0.0800
     41 H41       -16.1139    4.3351   47.0605 H       1  ZINC000541000201    0.0700
     42 H42       -15.0076    3.9629   45.7012 H       1  ZINC000541000201    0.0700
     43 H43       -17.6464    3.1220   45.7787 H       1  ZINC000541000201    0.0700
     44 H44       -16.3621    2.2357   44.9093 H       1  ZINC000541000201    0.0700
     45 H45       -16.5851    0.4863   46.3630 H       1  ZINC000541000201    0.0800
     46 H46       -17.8694    1.3726   47.2325 H       1  ZINC000541000201    0.0700
     47 H47       -13.0586    2.8521   51.4165 H       1  ZINC000541000201    0.1600
     48 H48        -8.4001    1.9854   54.8754 H       1  ZINC000541000201    0.1300
     49 H49        -6.1384    2.3518   53.9759 H       1  ZINC000541000201    0.1400
     50 H50        -4.3328    1.3868   50.3476 H       1  ZINC000541000201    0.1900
     51 H51        -6.5157   -1.1850   51.6066 H       1  ZINC000541000201    0.1400
     52 H52        -8.7747   -1.5472   52.5147 H       1  ZINC000541000201    0.1400
@<TRIPOS>BOND
     1     1     2    1
     2     1    32    1
     3     1    33    1
     4     1    34    1
     5     2     3    1
     6     3     4    2
     7     3     5    1
     8     5     6    1
     9     5     7    1
    10     5    22    1
    11     7     8   am
    12     7    35    1
    13     8     9    2
    14     8    10    1
    15    10    21   ar
    16    10    11   ar
    17    11    12   ar
    18    11    36    1
    19    12    13   ar
    20    12    37    1
    21    13    14    1
    22    13    20   ar
    23    14    15    1
    24    15    19    1
    25    15    16    1
    26    15    38    1
    27    16    17    1
    28    16    39    1
    29    16    40    1
    30    17    18    1
    31    17    41    1
    32    17    42    1
    33    18    19    1
    34    18    43    1
    35    18    44    1
    36    19    45    1
    37    19    46    1
    38    20    21   ar
    39    21    47    1
    40    22    31   ar
    41    22    23   ar
    42    23    24   ar
    43    23    48    1
    44    24    25   ar
    45    24    49    1
    46    25    26    1
    47    25    30   ar
    48    26    27    1
    49    27    28    1
    50    27    29    1
    51    27    50    1
    52    30    31   ar
    53    30    51    1
    54    31    52    1
@<TRIPOS>SUBSTRUCTURE
     1 ZINC000541000201        1 TEMP              0 ****  ****    0 ROOT


##########                                Name:    ZINC001291841503
##########                DOCK_Rotatable_Bonds:                   7
##########                         Heavy_Atoms:                  28
##########                    Molecular_Weight:             397.544
##########                DOCK_Rotatable_Bonds:                   7
##########                       Formal_Charge:         -0.00999964
##########                     HBond_Acceptors:                   7
##########                        HBond_Donors:                   0
##########                         Heavy_Atoms:                  28
##########                          Grid_Score:          -29.333279
##########                     Grid_vdw_energy:          -29.248455
##########                      Grid_es_energy:           -0.084825
##########           Internal_energy_repulsive:           18.859570

@<TRIPOS>MOLECULE
ZINC001291841503
 55 58 1 0 0
SMALL
USER_CHARGES


@<TRIPOS>ATOM
      1 C1         -7.8583    5.0670   50.8617 C.3     1  ZINC001291841503   -0.1500
      2 C2         -7.8458    3.5488   51.0514 C.3     1  ZINC001291841503   -0.1100
      3 C3         -7.3471    3.2147   52.4587 C.3     1  ZINC001291841503    0.0500
      4 H4         -7.6786    3.9858   53.1543 H       1  ZINC001291841503    0.0900
      5 C5         -7.9034    1.8807   52.8853 C.2     1  ZINC001291841503    0.2000
      6 N6         -7.2723    0.7409   52.8716 N.2     1  ZINC001291841503   -0.2700
      7 N7         -8.0424   -0.1944   53.3007 N.2     1  ZINC001291841503   -0.3100
      8 C8         -9.2157    0.3026   53.6137 C.2     1  ZINC001291841503    0.3600
      9 N9        -10.3024   -0.4001   54.1098 N.3     1  ZINC001291841503   -0.4500
     10 C10       -10.7819   -1.3866   53.1327 C.3     1  ZINC001291841503    0.0200
     11 C11        -9.9741   -1.0429   55.3891 C.3     1  ZINC001291841503    0.0700
     12 H12        -9.1318   -1.7249   55.2738 H       1  ZINC001291841503    0.0800
     13 C13        -9.6787    0.0203   56.4821 C.3     1  ZINC001291841503   -0.1400
     14 C14       -10.0819   -0.7541   57.7622 C.3     1  ZINC001291841503    0.0500
     15 O15       -11.2212   -1.5416   57.3811 O.3     1  ZINC001291841503   -0.3800
     16 C16       -11.2026   -1.7794   55.9652 C.3     1  ZINC001291841503    0.0600
     17 N17        -9.1620    1.6430   53.3641 N.pl3   1  ZINC001291841503   -0.4700
     18 C18       -10.2336    2.6228   53.5593 C.3     1  ZINC001291841503    0.1900
     19 C19       -11.3763    2.3098   52.6280 C.2     1  ZINC001291841503   -0.2700
     20 C20       -12.4466    1.5645   52.9196 C.2     1  ZINC001291841503    0.0800
     21 N21       -13.3100    1.4382   51.9321 N.2     1  ZINC001291841503   -0.4800
     22 C22       -13.0276    2.0354   50.8238 C.2     1  ZINC001291841503    0.0500
     23 C23       -13.8870    2.0086   49.5862 C.3     1  ZINC001291841503   -0.0800
     24 S24       -11.5409    2.8678   50.9649 S.3     1  ZINC001291841503    0.1800
     25 C25        -5.8414    3.1537   52.4568 C.ar    1  ZINC001291841503   -0.0900
     26 C26        -5.1842    2.3288   51.5631 C.ar    1  ZINC001291841503   -0.0900
     27 C27        -3.8030    2.2728   51.5613 C.ar    1  ZINC001291841503   -0.1200
     28 C28        -3.0790    3.0421   52.4528 C.ar    1  ZINC001291841503   -0.1200
     29 C29        -3.7360    3.8677   53.3459 C.ar    1  ZINC001291841503   -0.1200
     30 C30        -5.1172    3.9269   53.3448 C.ar    1  ZINC001291841503   -0.1100
     31 H31        -8.5210    5.5198   51.5992 H       1  ZINC001291841503    0.0500
     32 H32        -6.8491    5.4577   50.9919 H       1  ZINC001291841503    0.0500
     33 H33        -8.2135    5.3050   49.8592 H       1  ZINC001291841503    0.0600
     34 H34        -8.8550    3.1581   50.9214 H       1  ZINC001291841503    0.0800
     35 H35        -7.1831    3.0960   50.3140 H       1  ZINC001291841503    0.0800
     36 H36       -10.0157   -2.1462   52.9773 H       1  ZINC001291841503    0.0500
     37 H37       -11.6901   -1.8581   53.5081 H       1  ZINC001291841503    0.0900
     38 H38       -10.9957   -0.8877   52.1874 H       1  ZINC001291841503    0.0700
     39 H39        -8.6211    0.2833   56.4988 H       1  ZINC001291841503    0.0900
     40 H40       -10.2997    0.9058   56.3468 H       1  ZINC001291841503    0.0800
     41 H41        -9.2662   -1.4006   58.0858 H       1  ZINC001291841503    0.0700
     42 H42       -10.3517   -0.0579   58.5564 H       1  ZINC001291841503    0.0900
     43 H43       -12.1124   -1.3857   55.5121 H       1  ZINC001291841503    0.0800
     44 H44       -11.1243   -2.8491   55.7708 H       1  ZINC001291841503    0.0700
     45 H45       -10.5829    2.5784   54.5908 H       1  ZINC001291841503    0.1100
     46 H46        -9.8550    3.6225   53.3466 H       1  ZINC001291841503    0.1100
     47 H47       -12.5921    1.1037   53.8855 H       1  ZINC001291841503    0.1700
     48 H48       -14.5901    2.8411   49.6139 H       1  ZINC001291841503    0.0900
     49 H49       -13.2547    2.0963   48.7027 H       1  ZINC001291841503    0.0800
     50 H50       -14.4381    1.0689   49.5467 H       1  ZINC001291841503    0.0900
     51 H51        -5.7500    1.7278   50.8666 H       1  ZINC001291841503    0.1300
     52 H52        -3.2897    1.6278   50.8636 H       1  ZINC001291841503    0.1200
     53 H53        -1.9999    2.9979   52.4519 H       1  ZINC001291841503    0.1200
     54 H54        -3.1703    4.4684   54.0426 H       1  ZINC001291841503    0.1200
     55 H55        -5.6305    4.5719   54.0425 H       1  ZINC001291841503    0.1200
@<TRIPOS>BOND
     1     1     2    1
     2     1    31    1
     3     1    32    1
     4     1    33    1
     5     2     3    1
     6     2    34    1
     7     2    35    1
     8     3     4    1
     9     3     5    1
    10     3    25    1
    11     5    17    1
    12     5     6    2
    13     6     7    1
    14     7     8    2
    15     8     9    1
    16     8    17    1
    17     9    10    1
    18     9    11    1
    19    10    36    1
    20    10    37    1
    21    10    38    1
    22    11    12    1
    23    11    16    1
    24    11    13    1
    25    13    14    1
    26    13    39    1
    27    13    40    1
    28    14    15    1
    29    14    41    1
    30    14    42    1
    31    15    16    1
    32    16    43    1
    33    16    44    1
    34    17    18    1
    35    18    19    1
    36    18    45    1
    37    18    46    1
    38    19    24    1
    39    19    20    2
    40    20    21    1
    41    20    47    1
    42    21    22    2
    43    22    23    1
    44    22    24    1
    45    23    48    1
    46    23    49    1
    47    23    50    1
    48    25    30   ar
    49    25    26   ar
    50    26    27   ar
    51    26    51    1
    52    27    28   ar
    53    27    52    1
    54    28    29   ar
    55    28    53    1
    56    29    30   ar
    57    29    54    1
    58    30    55    1
@<TRIPOS>SUBSTRUCTURE
     1 ZINC001291841503        1 TEMP              0 ****  ****    0 ROOT


##########                                Name:    ZINC000433961694
##########                DOCK_Rotatable_Bonds:                   7
##########                         Heavy_Atoms:                  29
##########                    Molecular_Weight:             413.472
##########                DOCK_Rotatable_Bonds:                   7
##########                       Formal_Charge:          0.00999992
##########                     HBond_Acceptors:                   8
##########                        HBond_Donors:                   0
##########                         Heavy_Atoms:                  29
##########                          Grid_Score:          -29.322603
##########                     Grid_vdw_energy:          -28.382694
##########                      Grid_es_energy:           -0.939910
##########           Internal_energy_repulsive:           89.592163

@<TRIPOS>MOLECULE
ZINC000433961694
 49 52 1 0 0
SMALL
USER_CHARGES


@<TRIPOS>ATOM
      1 C1         -9.9650   -1.0454   53.5497 C.3     1  ZINC000433961694   -0.1000
      2 C2         -9.3657    0.3373   53.5505 C.2     1  ZINC000433961694    0.1600
      3 C3        -10.1134    1.4648   53.4509 C.2     1  ZINC000433961694   -0.3000
      4 C4        -11.5740    1.5260   53.3302 C.2     1  ZINC000433961694    0.6200
      5 O5        -12.2765    0.9804   54.1606 O.2     1  ZINC000433961694   -0.5100
      6 N6        -12.1378    2.1865   52.2996 N.am    1  ZINC000433961694   -0.6100
      7 C7        -11.4093    2.8888   51.2274 C.3     1  ZINC000433961694    0.1100
      8 C8        -12.3950    2.9203   50.0329 C.3     1  ZINC000433961694   -0.1300
      9 C9        -13.7520    3.1337   50.7543 C.3     1  ZINC000433961694    0.0800
     10 H10       -13.9105    4.1896   50.9734 H       1  ZINC000433961694    0.1000
     11 O11       -14.8284    2.6149   49.9704 O.3     1  ZINC000433961694   -0.2900
     12 C12       -14.7948    1.2898   49.6779 C.ar    1  ZINC000433961694    0.1700
     13 C13       -15.8005    0.7014   48.9152 C.ar    1  ZINC000433961694   -0.2600
     14 C14       -15.7303   -0.6487   48.6394 C.ar    1  ZINC000433961694    0.1400
     15 N15       -14.7273   -1.3792   49.0884 N.ar    1  ZINC000433961694   -0.5100
     16 C16       -13.7558   -0.8581   49.8138 C.ar    1  ZINC000433961694    0.1400
     17 C17       -13.7508    0.4855   50.1278 C.ar    1  ZINC000433961694   -0.2000
     18 C18       -13.5814    2.3205   52.0546 C.3     1  ZINC000433961694    0.0600
     19 S19        -9.0157    2.8426   53.4933 S.3     1  ZINC000433961694    0.2100
     20 C20        -7.6799    1.7857   53.6383 C.2     1  ZINC000433961694    0.0400
     21 C21        -6.2422    2.2257   53.7411 C.3     1  ZINC000433961694    0.1400
     22 O22        -5.8388    2.8272   52.5092 O.3     1  ZINC000433961694   -0.3000
     23 C23        -4.5345    2.6873   52.1521 C.ar    1  ZINC000433961694    0.1200
     24 C24        -4.1957    1.9213   51.0465 C.ar    1  ZINC000433961694   -0.1800
     25 C25        -2.8700    1.7801   50.6848 C.ar    1  ZINC000433961694   -0.1100
     26 C26        -1.8795    2.4023   51.4256 C.ar    1  ZINC000433961694    0.0600
     27 F27        -0.5833    2.2630   51.0711 F       1  ZINC000433961694   -0.1400
     28 C28        -2.2163    3.1677   52.5291 C.ar    1  ZINC000433961694   -0.1100
     29 C29        -3.5417    3.3153   52.8897 C.ar    1  ZINC000433961694   -0.1200
     30 N30        -8.0784    0.5544   53.6528 N.2     1  ZINC000433961694   -0.4500
     31 H31       -10.1968   -1.3414   54.5729 H       1  ZINC000433961694    0.0800
     32 H32       -10.8789   -1.0449   52.9558 H       1  ZINC000433961694    0.1000
     33 H33        -9.2529   -1.7499   53.1201 H       1  ZINC000433961694    0.0800
     34 H34       -11.1593    3.9027   51.5399 H       1  ZINC000433961694    0.0800
     35 H35       -10.5064    2.3400   50.9599 H       1  ZINC000433961694    0.1000
     36 H36       -12.1726    3.7523   49.3647 H       1  ZINC000433961694    0.1000
     37 H37       -12.3844    1.9737   49.4925 H       1  ZINC000433961694    0.1000
     38 H38       -16.6244    1.2936   48.5450 H       1  ZINC000433961694    0.1400
     39 H39       -16.5061   -1.1134   48.0490 H       1  ZINC000433961694    0.1600
     40 H40       -12.9525   -1.4902   50.1623 H       1  ZINC000433961694    0.1700
     41 H41       -12.9527    0.9058   50.7217 H       1  ZINC000433961694    0.1400
     42 H42       -14.0356    1.3365   51.9389 H       1  ZINC000433961694    0.0900
     43 H43       -14.0458    2.8500   52.8865 H       1  ZINC000433961694    0.0800
     44 H44        -6.1408    2.9501   54.5493 H       1  ZINC000433961694    0.0900
     45 H45        -5.6114    1.3611   53.9470 H       1  ZINC000433961694    0.1000
     46 H46        -4.9680    1.4352   50.4689 H       1  ZINC000433961694    0.1400
     47 H47        -2.6059    1.1836   49.8240 H       1  ZINC000433961694    0.1400
     48 H48        -1.4428    3.6528   53.1060 H       1  ZINC000433961694    0.1500
     49 H49        -3.8042    3.9124   53.7505 H       1  ZINC000433961694    0.1400
@<TRIPOS>BOND
     1     1     2    1
     2     1    31    1
     3     1    32    1
     4     1    33    1
     5     2    30    1
     6     2     3    2
     7     3     4    1
     8     3    19    1
     9     4     5    2
    10     4     6   am
    11     6    18    1
    12     6     7    1
    13     7     8    1
    14     7    34    1
    15     7    35    1
    16     8     9    1
    17     8    36    1
    18     8    37    1
    19     9    10    1
    20     9    11    1
    21     9    18    1
    22    11    12    1
    23    12    17   ar
    24    12    13   ar
    25    13    14   ar
    26    13    38    1
    27    14    15   ar
    28    14    39    1
    29    15    16   ar
    30    16    17   ar
    31    16    40    1
    32    17    41    1
    33    18    42    1
    34    18    43    1
    35    19    20    1
    36    20    21    1
    37    20    30    2
    38    21    22    1
    39    21    44    1
    40    21    45    1
    41    22    23    1
    42    23    29   ar
    43    23    24   ar
    44    24    25   ar
    45    24    46    1
    46    25    26   ar
    47    25    47    1
    48    26    27    1
    49    26    28   ar
    50    28    29   ar
    51    28    48    1
    52    29    49    1
@<TRIPOS>SUBSTRUCTURE
     1 ZINC000433961694        1 TEMP              0 ****  ****    0 ROOT


##########                                Name:    ZINC000439870054
##########                DOCK_Rotatable_Bonds:                   5
##########                         Heavy_Atoms:                  27
##########                    Molecular_Weight:             421.974
##########                DOCK_Rotatable_Bonds:                   5
##########                       Formal_Charge:           0.0200003
##########                     HBond_Acceptors:                   9
##########                        HBond_Donors:                   0
##########                         Heavy_Atoms:                  27
##########                          Grid_Score:          -29.318735
##########                     Grid_vdw_energy:          -28.909861
##########                      Grid_es_energy:           -0.408874
##########           Internal_energy_repulsive:           64.075409

@<TRIPOS>MOLECULE
ZINC000439870054
 47 50 1 0 0
SMALL
USER_CHARGES


@<TRIPOS>ATOM
      1 C1        -13.0174    1.6088   49.0313 C.3     1  ZINC000439870054   -0.1400
      2 C2        -13.6586    1.7775   50.4101 C.3     1  ZINC000439870054    0.0000
      3 C3        -15.0615    1.1668   50.3984 C.3     1  ZINC000439870054   -0.1400
      4 C4        -12.8153    1.0788   51.4454 C.2     1  ZINC000439870054    0.1900
      5 N5        -13.0125   -0.1213   51.9272 N.2     1  ZINC000439870054   -0.2900
      6 N6        -12.1001   -0.3975   52.7952 N.2     1  ZINC000439870054   -0.2700
      7 C7        -11.2894    0.6093   52.9042 C.2     1  ZINC000439870054    0.1600
      8 C8        -10.0823    0.7561   53.7989 C.3     1  ZINC000439870054    0.2400
      9 H9        -10.3990    0.8656   54.8361 H       1  ZINC000439870054    0.1100
     10 C10        -9.1752   -0.4678   53.6569 C.3     1  ZINC000439870054   -0.1300
     11 N11        -9.3664    1.9692   53.3603 N.am    1  ZINC000439870054   -0.6300
     12 C12        -8.0234    1.9791   53.2486 C.2     1  ZINC000439870054    0.5300
     13 O13        -7.3858    0.9811   53.5101 O.2     1  ZINC000439870054   -0.4900
     14 C14        -7.3139    3.2301   52.7985 C.3     1  ZINC000439870054   -0.0700
     15 C15        -5.8760    2.9067   52.4841 C.2     1  ZINC000439870054    0.0900
     16 C16        -5.5380    1.9556   51.6085 C.2     1  ZINC000439870054   -0.2400
     17 S17        -3.7792    1.8842   51.5211 S.3     1  ZINC000439870054    0.1300
     18 C18        -3.6719    3.1814   52.7085 C.2     1  ZINC000439870054    0.1400
     19 C19        -2.4244    3.7637   53.2265 C.2     1  ZINC000439870054   -0.1300
     20 C20        -1.1786    3.3899   52.8616 C.2     1  ZINC000439870054   -0.1000
     21 C21        -0.1638    4.0832   53.4851 C.2     1  ZINC000439870054   -0.1200
     22 C22        -0.5666    5.0181   54.3542 C.2     1  ZINC000439870054   -0.1500
     23 Cl23        0.4870    6.0405   55.2807 Cl      1  ZINC000439870054    0.0000
     24 S24        -2.3237    5.0599   54.4112 S.3     1  ZINC000439870054    0.2500
     25 N25        -4.8774    3.5462   53.0501 N.2     1  ZINC000439870054   -0.4400
     26 C26       -10.1602    3.1674   53.0480 C.3     1  ZINC000439870054    0.0900
     27 C27       -11.0729    2.8714   51.8521 C.3     1  ZINC000439870054    0.0900
     28 N28       -11.7127    1.5707   52.0446 N.pl3   1  ZINC000439870054   -0.4700
     29 H29       -13.6274    2.1141   48.2826 H       1  ZINC000439870054    0.0700
     30 H30       -12.0179    2.0439   49.0397 H       1  ZINC000439870054    0.0500
     31 H31       -12.9499    0.5481   48.7894 H       1  ZINC000439870054    0.0700
     32 H32       -13.7262    2.8381   50.6521 H       1  ZINC000439870054    0.0800
     33 H33       -15.5184    1.2870   51.3807 H       1  ZINC000439870054    0.0500
     34 H34       -15.6715    1.6722   49.6497 H       1  ZINC000439870054    0.0700
     35 H35       -14.9939    0.1062   50.1564 H       1  ZINC000439870054    0.0700
     36 H36        -8.7305   -0.4769   52.6618 H       1  ZINC000439870054    0.0600
     37 H37        -8.3857   -0.4240   54.4072 H       1  ZINC000439870054    0.0900
     38 H38        -9.7630   -1.3743   53.8005 H       1  ZINC000439870054    0.0700
     39 H39        -7.8013    3.6233   51.9062 H       1  ZINC000439870054    0.1100
     40 H40        -7.3533    3.9758   53.5926 H       1  ZINC000439870054    0.1200
     41 H41        -6.2249    1.3365   51.0505 H       1  ZINC000439870054    0.1800
     42 H42        -0.9926    2.6092   52.1389 H       1  ZINC000439870054    0.1500
     43 H43         0.8795    3.8864   53.2874 H       1  ZINC000439870054    0.1600
     44 H44       -10.7678    3.4368   53.9119 H       1  ZINC000439870054    0.0900
     45 H45        -9.4920    3.9922   52.8005 H       1  ZINC000439870054    0.1200
     46 H46       -11.8350    3.6469   51.7749 H       1  ZINC000439870054    0.1100
     47 H47       -10.4799    2.8499   50.9377 H       1  ZINC000439870054    0.0900
@<TRIPOS>BOND
     1     1     2    1
     2     1    29    1
     3     1    30    1
     4     1    31    1
     5     2     3    1
     6     2     4    1
     7     2    32    1
     8     3    33    1
     9     3    34    1
    10     3    35    1
    11     4    28    1
    12     4     5    2
    13     5     6    1
    14     6     7    2
    15     7    28    1
    16     7     8    1
    17     8     9    1
    18     8    10    1
    19     8    11    1
    20    10    36    1
    21    10    37    1
    22    10    38    1
    23    11    12   am
    24    11    26    1
    25    12    13    2
    26    12    14    1
    27    14    15    1
    28    14    39    1
    29    14    40    1
    30    15    25    1
    31    15    16    2
    32    16    17    1
    33    16    41    1
    34    17    18    1
    35    18    19    1
    36    18    25    2
    37    19    24    1
    38    19    20    2
    39    20    21    1
    40    20    42    1
    41    21    22    2
    42    21    43    1
    43    22    23    1
    44    22    24    1
    45    26    27    1
    46    26    44    1
    47    26    45    1
    48    27    28    1
    49    27    46    1
    50    27    47    1
@<TRIPOS>SUBSTRUCTURE
     1 ZINC000439870054        1 TEMP              0 ****  ****    0 ROOT


##########                                Name:     oleObject79.pdb
##########                DOCK_Rotatable_Bonds:                  12
##########                         Heavy_Atoms:                  53
##########                    Molecular_Weight:             725.376
##########                DOCK_Rotatable_Bonds:                  12
##########                       Formal_Charge:          0.00050066
##########                     HBond_Acceptors:                   8
##########                        HBond_Donors:                   4
##########                         Heavy_Atoms:                  53
##########                          Grid_Score:          -29.295351
##########                     Grid_vdw_energy:          -29.872351
##########                      Grid_es_energy:            0.577000
##########           Internal_energy_repulsive:           45.160202

@<TRIPOS>MOLECULE
oleObject79.pdb
 102 108 1 0 0
SMALL
NO_CHARGES


@<TRIPOS>ATOM
      1 C         -10.7670   -3.0214   56.6715 C.ar    1  UNL        -0.0620
      2 C         -11.1296   -3.1507   58.0194 C.ar    1  UNL        -0.0590
      3 C         -11.9546   -2.1922   58.6399 C.ar    1  UNL        -0.0456
      4 C         -12.4284   -1.0815   57.8923 C.ar    1  UNL        -0.0185
      5 C         -12.0522   -0.9696   56.5362 C.ar    1  UNL        -0.0565
      6 C         -11.2290   -1.9286   55.9292 C.ar    1  UNL        -0.0619
      7 C         -13.3778   -0.0298   58.5011 C.3     1  UNL         0.0931
      8 C         -12.7844    0.7914   59.6612 C.ar    1  UNL         0.0683
      9 C         -13.6163    1.4000   60.6357 C.ar    1  UNL        -0.0272
     10 C         -13.0095    2.1371   61.6702 C.ar    1  UNL        -0.0559
     11 C         -11.6118    2.2434   61.7055 C.ar    1  UNL        -0.0435
     12 C         -10.8649    1.6080   60.7031 C.ar    1  UNL         0.0272
     13 N         -11.4362    0.9025   59.7094 N.ar    1  UNL        -0.2587
     14 C         -15.1366    1.2831   60.5976 C.3     1  UNL        -0.0379
     15 N         -14.0378    0.7822   57.4407 N.am    1  UNL        -0.2918
     16 C         -13.3202    1.7619   56.7510 C.2     1  UNL         0.2179
     17 O         -12.2698    2.1844   57.2051 O.2     1  UNL        -0.2772
     18 C         -14.0953    2.5550   55.6644 C.3     1  UNL         0.0361
     19 C         -14.2846    1.7575   54.3422 C.3     1  UNL        -0.0412
     20 C         -12.9875    1.6280   53.4966 C.3     1  UNL        -0.0453
     21 C         -12.2526    2.9765   53.2347 C.3     1  UNL        -0.0139
     22 C         -10.8318    2.6643   52.6883 C.3     1  UNL         0.0171
     23 N         -10.1196    3.9051   52.3213 N.pl3   1  UNL        -0.3290
     24 C         -10.7819    4.6859   51.2581 C.3     1  UNL         0.0115
     25 C         -12.2293    5.0459   51.6683 C.3     1  UNL        -0.0368
     26 C         -13.0184    3.8036   52.1528 C.3     1  UNL        -0.0446
     27 C          -8.8260    4.1740   52.7807 C.ar    1  UNL         0.0476
     28 C          -8.5987    4.2626   54.1680 C.ar    1  UNL        -0.0375
     29 C          -7.3239    4.5598   54.6736 C.ar    1  UNL        -0.0388
     30 C          -6.2492    4.7981   53.8032 C.ar    1  UNL         0.0318
     31 C          -6.4633    4.6943   52.4166 C.ar    1  UNL        -0.0202
     32 C          -7.7364    4.3921   51.9043 C.ar    1  UNL         0.0636
     33 CL         -7.9086    4.3700   50.1576 Cl      1  UNL        -0.0822
     34 N          -4.9977    5.0908   54.3415 N.pl3   1  UNL        -0.3149
     35 C          -3.7114    4.7421   53.9333 C.ar    1  UNL         0.0302
     36 C          -3.4540    3.5914   53.1654 C.ar    1  UNL        -0.0402
     37 C          -2.1478    3.2870   52.7502 C.ar    1  UNL        -0.0525
     38 C          -1.0549    4.1260   53.0816 C.ar    1  UNL        -0.0182
     39 C          -1.3351    5.2900   53.8395 C.ar    1  UNL        -0.0525
     40 C          -2.6429    5.5962   54.2500 C.ar    1  UNL        -0.0402
     41 C           0.3424    3.8015   52.6388 C.ar    1  UNL        -0.0177
     42 C           0.5841    2.9708   51.5149 C.ar    1  UNL        -0.0439
     43 C           1.8917    2.6534   51.0870 C.ar    1  UNL         0.0111
     44 C           2.9843    3.1816   51.8055 C.ar    1  UNL        -0.0518
     45 C           2.7717    4.0065   52.9192 C.ar    1  UNL        -0.0609
     46 C           1.4668    4.3139   53.3307 C.ar    1  UNL        -0.0543
     47 C           2.0999    1.8352   49.9720 C.2     1  UNL         0.1014
     48 N           1.1302    1.3391   49.2955 N.3     1  UNL        -0.2892
     49 N           3.3396    1.5290   49.5659 N.3     1  UNL        -0.2870
     50 C         -12.1096    3.7576   54.5781 C.3     1  UNL        -0.0453
     51 C         -13.4397    3.9234   55.3437 C.3     1  UNL        -0.0412
     52 C         -15.4546    0.4949   57.1264 C.3     1  UNL         0.0037
     53 C         -12.3267   -2.4083   60.1029 C.3     1  UNL        -0.0394
     54 H         -10.1333   -3.7675   56.2019 H       1  UNL         0.0623
     55 H         -10.7711   -4.0067   58.5838 H       1  UNL         0.0626
     56 H         -12.4013   -0.1315   55.9424 H       1  UNL         0.0627
     57 H         -10.9529   -1.8252   54.8839 H       1  UNL         0.0623
     58 H         -14.1823   -0.5890   58.9814 H       1  UNL         0.0626
     59 H         -13.6105    2.6193   62.4359 H       1  UNL         0.0627
     60 H         -11.1175    2.8046   62.4929 H       1  UNL         0.0639
     61 H          -9.7770    1.6640   60.6944 H       1  UNL         0.0840
     62 H         -15.5452    1.7179   59.6775 H       1  UNL         0.0280
     63 H         -15.6034    1.8079   61.4403 H       1  UNL         0.0280
     64 H         -15.4565    0.2351   60.6500 H       1  UNL         0.0280
     65 H         -15.0964    2.7433   56.0708 H       1  UNL         0.0401
     66 H         -15.0493    2.2600   53.7364 H       1  UNL         0.0275
     67 H         -14.6812    0.7583   54.5638 H       1  UNL         0.0275
     68 H         -13.2281    1.1415   52.5425 H       1  UNL         0.0273
     69 H         -12.2992    0.9424   54.0046 H       1  UNL         0.0273
     70 H         -10.9124    2.0173   51.8051 H       1  UNL         0.0474
     71 H         -10.2671    2.1131   53.4518 H       1  UNL         0.0474
     72 H         -10.8109    4.0864   50.3392 H       1  UNL         0.0468
     73 H         -10.2208    5.6015   51.0341 H       1  UNL         0.0468
     74 H         -12.7482    5.5033   50.8167 H       1  UNL         0.0283
     75 H         -12.2097    5.8030   52.4611 H       1  UNL         0.0283
     76 H         -13.2035    3.1629   51.2807 H       1  UNL         0.0273
     77 H         -14.0050    4.1151   52.5147 H       1  UNL         0.0273
     78 H          -9.4150    4.0921   54.8640 H       1  UNL         0.0644
     79 H          -7.1755    4.6208   55.7481 H       1  UNL         0.0643
     80 H          -5.6398    4.8444   51.7255 H       1  UNL         0.0659
     81 H          -5.0262    5.6775   55.1654 H       1  UNL         0.1528
     82 H          -4.2652    2.9356   52.8689 H       1  UNL         0.0643
     83 H          -1.9865    2.3811   52.1743 H       1  UNL         0.0630
     84 H          -0.5364    5.9783   54.0969 H       1  UNL         0.0630
     85 H          -2.8249    6.5008   54.8233 H       1  UNL         0.0643
     86 H          -0.2615    2.5733   50.9622 H       1  UNL         0.0637
     87 H           4.0039    2.9666   51.4976 H       1  UNL         0.0630
     88 H           3.6204    4.4080   53.4657 H       1  UNL         0.0623
     89 H           1.3313    4.9407   54.2066 H       1  UNL         0.0629
     90 H           0.3150    1.1845   49.8927 H       1  UNL         0.1889
     91 H           3.8044    0.7009   49.9337 H       1  UNL         0.1258
     92 H           3.5735    1.5952   48.5769 H       1  UNL         0.1258
     93 H         -11.6664    4.7466   54.4171 H       1  UNL         0.0273
     94 H         -11.4054    3.2196   55.2230 H       1  UNL         0.0273
     95 H         -14.1344    4.5277   54.7481 H       1  UNL         0.0275
     96 H         -13.2623    4.4984   56.2585 H       1  UNL         0.0275
     97 H         -16.0536    1.4118   57.1572 H       1  UNL         0.0433
     98 H         -15.8897   -0.2122   57.8417 H       1  UNL         0.0433
     99 H         -15.5212    0.0611   56.1209 H       1  UNL         0.0433
    100 H         -11.8125   -3.2782   60.5300 H       1  UNL         0.0280
    101 H         -13.4048   -2.5814   60.2122 H       1  UNL         0.0280
    102 H         -12.0546   -1.5380   60.7132 H       1  UNL         0.0280
@<TRIPOS>BOND
     1     1     2   ar
     2     1     6   ar
     3     1    54    1
     4     2     3   ar
     5     2    55    1
     6     3     4   ar
     7     3    53    1
     8     4     5   ar
     9     4     7    1
    10     5     6   ar
    11     5    56    1
    12     6    57    1
    13     7     8    1
    14     7    15    1
    15     7    58    1
    16     8     9   ar
    17     8    13   ar
    18     9    10   ar
    19     9    14    1
    20    10    11   ar
    21    10    59    1
    22    11    12   ar
    23    11    60    1
    24    12    13   ar
    25    12    61    1
    26    14    62    1
    27    14    63    1
    28    14    64    1
    29    15    16   am
    30    15    52    1
    31    16    17    2
    32    16    18    1
    33    18    19    1
    34    18    51    1
    35    18    65    1
    36    19    20    1
    37    19    66    1
    38    19    67    1
    39    20    21    1
    40    20    68    1
    41    20    69    1
    42    21    22    1
    43    21    26    1
    44    21    50    1
    45    22    23    1
    46    22    70    1
    47    22    71    1
    48    23    24    1
    49    23    27    1
    50    24    25    1
    51    24    72    1
    52    24    73    1
    53    25    26    1
    54    25    74    1
    55    25    75    1
    56    26    76    1
    57    26    77    1
    58    27    28   ar
    59    27    32   ar
    60    28    29   ar
    61    28    78    1
    62    29    30   ar
    63    29    79    1
    64    30    31   ar
    65    30    34    1
    66    31    32   ar
    67    31    80    1
    68    32    33    1
    69    34    35    1
    70    34    81    1
    71    35    36   ar
    72    35    40   ar
    73    36    37   ar
    74    36    82    1
    75    37    38   ar
    76    37    83    1
    77    38    39   ar
    78    38    41    1
    79    39    40   ar
    80    39    84    1
    81    40    85    1
    82    41    42   ar
    83    41    46   ar
    84    42    43   ar
    85    42    86    1
    86    43    44   ar
    87    43    47    1
    88    44    45   ar
    89    44    87    1
    90    45    46   ar
    91    45    88    1
    92    46    89    1
    93    47    48    1
    94    47    49    1
    95    48    90    1
    96    49    91    1
    97    49    92    1
    98    50    51    1
    99    50    93    1
   100    50    94    1
   101    51    95    1
   102    51    96    1
   103    52    97    1
   104    52    98    1
   105    52    99    1
   106    53   100    1
   107    53   101    1
   108    53   102    1
@<TRIPOS>SUBSTRUCTURE
     1 UNL         1 TEMP              0 ****  ****    0 ROOT


##########                                Name:    ZINC000000992968
##########                DOCK_Rotatable_Bonds:                   8
##########                         Heavy_Atoms:                  27
##########                    Molecular_Weight:             384.772
##########                DOCK_Rotatable_Bonds:                   8
##########                       Formal_Charge:           0.0199999
##########                     HBond_Acceptors:                   7
##########                        HBond_Donors:                   0
##########                         Heavy_Atoms:                  27
##########                          Grid_Score:          -29.285814
##########                     Grid_vdw_energy:          -28.897690
##########                      Grid_es_energy:           -0.388125
##########           Internal_energy_repulsive:           10.915598

@<TRIPOS>MOLECULE
ZINC000000992968
 40 42 1 0 0
SMALL
USER_CHARGES


@<TRIPOS>ATOM
      1 O1         -8.4340    0.3976   64.8561 O.2     1  ZINC000000992968   -0.4600
      2 C2         -8.4694    0.4588   63.6419 C.2     1  ZINC000000992968    0.5600
      3 O3         -7.3470    0.2494   62.9226 O.3     1  ZINC000000992968   -0.2900
      4 C4         -7.1730    0.9736   61.7883 C.ar    1  ZINC000000992968    0.1200
      5 C5         -7.2947    2.3584   61.8248 C.ar    1  ZINC000000992968   -0.1300
      6 C6         -7.1195    3.0974   60.6772 C.ar    1  ZINC000000992968   -0.0400
      7 C7         -6.8178    2.4527   59.4715 C.ar    1  ZINC000000992968   -0.1600
      8 C8         -6.6293    3.2366   58.2436 C.2     1  ZINC000000992968    0.4000
      9 O9         -6.6669    4.4482   58.2859 O.2     1  ZINC000000992968   -0.4200
     10 C10        -6.3892    2.5356   56.9313 C.3     1  ZINC000000992968    0.0200
     11 O11        -6.8423    3.3807   55.8411 O.3     1  ZINC000000992968   -0.3300
     12 C12        -7.1827    2.7661   54.6915 C.2     1  ZINC000000992968    0.5100
     13 O13        -8.3364    2.4397   54.4959 O.2     1  ZINC000000992968   -0.5000
     14 C14        -6.1536    2.4893   53.6695 C.ar    1  ZINC000000992968   -0.1300
     15 C15        -6.3143    1.4214   52.7837 C.ar    1  ZINC000000992968   -0.0500
     16 C16        -5.3500    1.1684   51.8313 C.ar    1  ZINC000000992968   -0.1200
     17 C17        -4.2234    1.9705   51.7521 C.ar    1  ZINC000000992968    0.0000
     18 Cl18       -3.0135    1.6451   50.5505 Cl      1  ZINC000000992968   -0.0500
     19 C19        -4.0584    3.0314   52.6274 C.ar    1  ZINC000000992968   -0.1200
     20 C20        -5.0182    3.2979   53.5808 C.ar    1  ZINC000000992968   -0.0400
     21 C21        -6.6959    1.0581   59.4402 C.ar    1  ZINC000000992968   -0.0600
     22 C22        -6.8678    0.3288   60.5945 C.ar    1  ZINC000000992968   -0.1200
     23 C23        -9.7315    0.7540   62.9602 C.2     1  ZINC000000992968   -0.0700
     24 C24       -10.8827    1.1891   63.5544 C.2     1  ZINC000000992968   -0.0900
     25 C25       -11.8315    1.3414   62.5321 C.2     1  ZINC000000992968   -0.2300
     26 C26       -11.2267    0.9972   61.3732 C.2     1  ZINC000000992968    0.0200
     27 O27        -9.9602    0.6495   61.6345 O.3     1  ZINC000000992968   -0.1500
     28 H28        -7.5274    2.8547   62.7553 H       1  ZINC000000992968    0.1400
     29 H29        -7.2149    4.1728   60.7065 H       1  ZINC000000992968    0.1500
     30 H30        -5.3242    2.3343   56.8165 H       1  ZINC000000992968    0.1100
     31 H31        -6.9405    1.5954   56.9156 H       1  ZINC000000992968    0.1100
     32 H32        -7.1920    0.7950   52.8450 H       1  ZINC000000992968    0.1500
     33 H33        -5.4731    0.3430   51.1458 H       1  ZINC000000992968    0.1500
     34 H34        -3.1781    3.6533   52.5605 H       1  ZINC000000992968    0.1500
     35 H35        -4.8886    4.1254   54.2624 H       1  ZINC000000992968    0.1500
     36 H36        -6.4636    0.5561   58.5126 H       1  ZINC000000992968    0.1400
     37 H37        -6.7737   -0.7468   60.5716 H       1  ZINC000000992968    0.1400
     38 H38       -11.0329    1.3791   64.6069 H       1  ZINC000000992968    0.1700
     39 H39       -12.8530    1.6716   62.6491 H       1  ZINC000000992968    0.1700
     40 H40       -11.6880    1.0051   60.3967 H       1  ZINC000000992968    0.2200
@<TRIPOS>BOND
     1     1     2    2
     2     2     3    1
     3     2    23    1
     4     3     4    1
     5     4    22   ar
     6     4     5   ar
     7     5     6   ar
     8     5    28    1
     9     6     7   ar
    10     6    29    1
    11     7     8    1
    12     7    21   ar
    13     8     9    2
    14     8    10    1
    15    10    11    1
    16    10    30    1
    17    10    31    1
    18    11    12    1
    19    12    13    2
    20    12    14    1
    21    14    20   ar
    22    14    15   ar
    23    15    16   ar
    24    15    32    1
    25    16    17   ar
    26    16    33    1
    27    17    18    1
    28    17    19   ar
    29    19    20   ar
    30    19    34    1
    31    20    35    1
    32    21    22   ar
    33    21    36    1
    34    22    37    1
    35    23    27    1
    36    23    24    2
    37    24    25    1
    38    24    38    1
    39    25    26    2
    40    25    39    1
    41    26    27    1
    42    26    40    1
@<TRIPOS>SUBSTRUCTURE
     1 ZINC000000992968        1 TEMP              0 ****  ****    0 ROOT


##########                                Name:    ZINC001018437438
##########                DOCK_Rotatable_Bonds:                   8
##########                         Heavy_Atoms:                  24
##########                    Molecular_Weight:              333.39
##########                DOCK_Rotatable_Bonds:                   8
##########                       Formal_Charge:        -4.17233e-07
##########                     HBond_Acceptors:                   8
##########                        HBond_Donors:                   4
##########                         Heavy_Atoms:                  24
##########                          Grid_Score:          -29.264755
##########                     Grid_vdw_energy:          -28.533701
##########                      Grid_es_energy:           -0.731053
##########           Internal_energy_repulsive:           89.331337

@<TRIPOS>MOLECULE
ZINC001018437438
 47 49 1 0 0
SMALL
USER_CHARGES


@<TRIPOS>ATOM
      1 C1        -14.0190   -2.5350   58.6780 C.3     1  ZINC001018437438   -0.1400
      2 C2        -12.7998   -1.7948   58.1245 C.3     1  ZINC001018437438    0.1400
      3 H3        -12.5328   -0.9778   58.7949 H       1  ZINC001018437438    0.0700
      4 C4        -11.6210   -2.7655   58.0031 C.3     1  ZINC001018437438   -0.1300
      5 C5        -10.4491   -2.0561   57.3209 C.3     1  ZINC001018437438   -0.1300
      6 C6        -10.8635   -1.6212   55.9133 C.3     1  ZINC001018437438    0.1300
      7 H7        -11.1698   -2.4948   55.3380 H       1  ZINC001018437438    0.1000
      8 N8         -9.7312   -0.9707   55.2492 N.am    1  ZINC001018437438   -0.7200
      9 C9         -9.4642   -1.2384   53.9557 C.2     1  ZINC001018437438    0.6000
     10 O10       -10.1643   -2.0189   53.3391 O.2     1  ZINC001018437438   -0.5100
     11 C11        -8.3257   -0.5864   53.2891 C.2     1  ZINC001018437438   -0.0400
     12 C12        -7.8407    0.6874   53.5295 C.2     1  ZINC001018437438   -0.1400
     13 C13        -6.7625    0.8439   52.6554 C.2     1  ZINC001018437438    0.0600
     14 C14        -5.8929    2.0681   52.5295 C.3     1  ZINC001018437438   -0.0800
     15 C15        -5.0477    2.2069   51.2617 C.3     1  ZINC001018437438   -0.1700
     16 C16        -6.2740    3.0989   51.4649 C.3     1  ZINC001018437438   -0.1600
     17 N17        -6.6412   -0.2616   51.9658 N.2     1  ZINC001018437438   -0.2600
     18 N18        -7.5322   -1.1192   52.3132 N.pl3   1  ZINC001018437438   -0.3800
     19 C19       -12.0337   -0.6374   56.0110 C.3     1  ZINC001018437438    0.1000
     20 N20       -13.1124   -1.2573   56.7934 N.am    1  ZINC001018437438   -0.6100
     21 C21       -14.3630   -1.3356   56.2970 C.2     1  ZINC001018437438    0.5200
     22 O22       -15.2434   -1.8538   56.9506 O.2     1  ZINC001018437438   -0.4800
     23 C23       -14.6672   -0.7794   54.9298 C.3     1  ZINC001018437438   -0.1700
     24 C24       -16.1452   -0.8942   54.6584 C.2     1  ZINC001018437438    0.5200
     25 N25       -16.7264   -2.1086   54.5954 N.am    1  ZINC001018437438   -0.8600
     26 O26       -16.8114    0.1062   54.4966 O.2     1  ZINC001018437438   -0.5000
     27 H27       -14.3455   -3.2861   57.9588 H       1  ZINC001018437438    0.0700
     28 H28       -13.7533   -3.0218   59.6164 H       1  ZINC001018437438    0.0500
     29 H29       -14.8267   -1.8245   58.8534 H       1  ZINC001018437438    0.0800
     30 H30       -11.3178   -3.0956   58.9968 H       1  ZINC001018437438    0.0900
     31 H31       -11.9201   -3.6284   57.4082 H       1  ZINC001018437438    0.0700
     32 H32       -10.1666   -1.1792   57.9035 H       1  ZINC001018437438    0.0700
     33 H33        -9.6006   -2.7371   57.2555 H       1  ZINC001018437438    0.0800
     34 H34        -9.1736   -0.3474   55.7406 H       1  ZINC001018437438    0.4000
     35 H35        -8.2161    1.4075   54.2416 H       1  ZINC001018437438    0.1700
     36 H36        -5.4679    2.4408   53.4615 H       1  ZINC001018437438    0.1200
     37 H37        -4.0661    2.6708   51.3595 H       1  ZINC001018437438    0.1000
     38 H38        -5.1206    1.4126   50.5188 H       1  ZINC001018437438    0.1000
     39 H39        -7.1538    2.8916   50.8557 H       1  ZINC001018437438    0.1000
     40 H40        -6.0993    4.1496   51.6965 H       1  ZINC001018437438    0.1000
     41 H41        -7.6308   -2.0071   51.9354 H       1  ZINC001018437438    0.4400
     42 H42       -11.7034    0.2752   56.5070 H       1  ZINC001018437438    0.0700
     43 H43       -12.3970   -0.4011   55.0108 H       1  ZINC001018437438    0.0900
     44 H44       -14.3708    0.2687   54.8897 H       1  ZINC001018437438    0.1200
     45 H45       -14.1148   -1.3422   54.1774 H       1  ZINC001018437438    0.1200
     46 H46       -17.6774   -2.1827   54.4197 H       1  ZINC001018437438    0.4000
     47 H47       -16.1936   -2.9085   54.7261 H       1  ZINC001018437438    0.4000
@<TRIPOS>BOND
     1     1     2    1
     2     1    27    1
     3     1    28    1
     4     1    29    1
     5     2     3    1
     6     2    20    1
     7     2     4    1
     8     4     5    1
     9     4    30    1
    10     4    31    1
    11     5     6    1
    12     5    32    1
    13     5    33    1
    14     6     7    1
    15     6     8    1
    16     6    19    1
    17     8     9   am
    18     8    34    1
    19     9    10    2
    20     9    11    1
    21    11    18    1
    22    11    12    2
    23    12    13    1
    24    12    35    1
    25    13    14    1
    26    13    17    2
    27    14    16    1
    28    14    15    1
    29    14    36    1
    30    15    16    1
    31    15    37    1
    32    15    38    1
    33    16    39    1
    34    16    40    1
    35    17    18    1
    36    18    41    1
    37    19    20    1
    38    19    42    1
    39    19    43    1
    40    20    21   am
    41    21    22    2
    42    21    23    1
    43    23    24    1
    44    23    44    1
    45    23    45    1
    46    24    25   am
    47    24    26    2
    48    25    46    1
    49    25    47    1
@<TRIPOS>SUBSTRUCTURE
     1 ZINC001018437438        1 TEMP              0 ****  ****    0 ROOT


##########                                Name:    ZINC000655235556
##########                DOCK_Rotatable_Bonds:                   6
##########                         Heavy_Atoms:                  23
##########                    Molecular_Weight:             336.778
##########                DOCK_Rotatable_Bonds:                   6
##########                       Formal_Charge:         -0.00999996
##########                     HBond_Acceptors:                   8
##########                        HBond_Donors:                   2
##########                         Heavy_Atoms:                  23
##########                          Grid_Score:          -29.245020
##########                     Grid_vdw_energy:          -28.919874
##########                      Grid_es_energy:           -0.325145
##########           Internal_energy_repulsive:            8.855353

@<TRIPOS>MOLECULE
ZINC000655235556
 40 42 1 0 0
SMALL
USER_CHARGES


@<TRIPOS>ATOM
      1 C1         -5.5478    1.1695   52.0404 C.3     1  ZINC000655235556    0.0200
      2 O2         -5.9798    1.9937   53.1249 O.3     1  ZINC000655235556   -0.2700
      3 C3         -7.0350    1.5504   53.8530 C.ar    1  ZINC000655235556    0.2000
      4 C4         -7.8823    0.5843   53.3335 C.ar    1  ZINC000655235556   -0.2100
      5 C5         -8.9570    0.1332   54.0770 C.ar    1  ZINC000655235556    0.0300
      6 Cl6       -10.0141   -1.0770   53.4200 Cl      1  ZINC000655235556   -0.0500
      7 C7         -9.1950    0.6417   55.3449 C.ar    1  ZINC000655235556   -0.1600
      8 C8         -8.3622    1.6024   55.8756 C.ar    1  ZINC000655235556   -0.0300
      9 C9         -7.2699    2.0632   55.1366 C.ar    1  ZINC000655235556   -0.1700
     10 C10        -6.3746    3.0911   55.6995 C.2     1  ZINC000655235556    0.5700
     11 O11        -6.7436    4.2479   55.7671 O.2     1  ZINC000655235556   -0.5100
     12 N12        -5.1475    2.7485   56.1390 N.am    1  ZINC000655235556   -0.7300
     13 C13        -4.2587    3.7693   56.6998 C.3     1  ZINC000655235556    0.2100
     14 C14        -2.8278    3.4181   56.3837 C.2     1  ZINC000655235556    0.2600
     15 N15        -2.0025    2.7761   57.1701 N.2     1  ZINC000655235556   -0.5100
     16 C16        -0.8206    2.6397   56.5704 C.2     1  ZINC000655235556    0.2200
     17 C17         0.3861    1.9548   57.1587 C.3     1  ZINC000655235556    0.1700
     18 H18         0.3498    0.8881   56.9381 H       1  ZINC000655235556    0.1100
     19 C19         0.4189    2.1729   58.6867 C.3     1  ZINC000655235556   -0.1400
     20 C20         1.9330    2.3891   58.9563 C.3     1  ZINC000655235556   -0.1500
     21 C21         2.3600    3.1259   57.6618 C.3     1  ZINC000655235556    0.0500
     22 O22         1.5819    2.5236   56.6128 O.3     1  ZINC000655235556   -0.3700
     23 N23        -0.8776    3.1955   55.3887 N.2     1  ZINC000655235556   -0.2800
     24 N24        -2.1783    3.7048   55.2422 N.pl3   1  ZINC000655235556   -0.4700
     25 H25        -5.2505    0.1928   52.4223 H       1  ZINC000655235556    0.0600
     26 H26        -6.3644    1.0481   51.3286 H       1  ZINC000655235556    0.0600
     27 H27        -4.6990    1.6389   51.5430 H       1  ZINC000655235556    0.1100
     28 H28        -7.7030    0.1837   52.3467 H       1  ZINC000655235556    0.1500
     29 H29       -10.0369    0.2835   55.9185 H       1  ZINC000655235556    0.1400
     30 H30        -8.5515    1.9959   56.8634 H       1  ZINC000655235556    0.1400
     31 H31        -4.8526    1.8260   56.0840 H       1  ZINC000655235556    0.4000
     32 H32        -4.4994    4.7393   56.2647 H       1  ZINC000655235556    0.1000
     33 H33        -4.3919    3.8129   57.7807 H       1  ZINC000655235556    0.1100
     34 H34        -0.1549    3.0570   58.9648 H       1  ZINC000655235556    0.0800
     35 H35         0.0534    1.2907   59.2123 H       1  ZINC000655235556    0.0900
     36 H36         2.0900    3.0152   59.8347 H       1  ZINC000655235556    0.0900
     37 H37         2.4541    1.4371   59.0566 H       1  ZINC000655235556    0.0800
     38 H38         2.1330    4.1892   57.7393 H       1  ZINC000655235556    0.0600
     39 H39         3.4236    2.9777   57.4756 H       1  ZINC000655235556    0.0900
     40 H40        -2.5350    4.1755   54.4728 H       1  ZINC000655235556    0.4400
@<TRIPOS>BOND
     1     1     2    1
     2     1    25    1
     3     1    26    1
     4     1    27    1
     5     2     3    1
     6     3     9   ar
     7     3     4   ar
     8     4     5   ar
     9     4    28    1
    10     5     6    1
    11     5     7   ar
    12     7     8   ar
    13     7    29    1
    14     8     9   ar
    15     8    30    1
    16     9    10    1
    17    10    11    2
    18    10    12   am
    19    12    13    1
    20    12    31    1
    21    13    14    1
    22    13    32    1
    23    13    33    1
    24    14    24    1
    25    14    15    2
    26    15    16    1
    27    16    17    1
    28    16    23    2
    29    17    18    1
    30    17    22    1
    31    17    19    1
    32    19    20    1
    33    19    34    1
    34    19    35    1
    35    20    21    1
    36    20    36    1
    37    20    37    1
    38    21    22    1
    39    21    38    1
    40    21    39    1
    41    23    24    1
    42    24    40    1
@<TRIPOS>SUBSTRUCTURE
     1 ZINC000655235556        1 TEMP              0 ****  ****    0 ROOT


##########                                Name:    ZINC000817655807
##########                DOCK_Rotatable_Bonds:                   3
##########                         Heavy_Atoms:                  24
##########                    Molecular_Weight:             352.774
##########                DOCK_Rotatable_Bonds:                   3
##########                       Formal_Charge:         3.35276e-07
##########                     HBond_Acceptors:                   8
##########                        HBond_Donors:                   0
##########                         Heavy_Atoms:                  24
##########                          Grid_Score:          -29.239834
##########                     Grid_vdw_energy:          -28.363680
##########                      Grid_es_energy:           -0.876154
##########           Internal_energy_repulsive:            2.834660

@<TRIPOS>MOLECULE
ZINC000817655807
 41 44 1 0 0
SMALL
USER_CHARGES


@<TRIPOS>ATOM
      1 C1        -15.3265   -3.4061   58.4340 C.3     1  ZINC000817655807    0.1100
      2 N2        -14.1532   -2.5521   58.2331 N.am    1  ZINC000817655807   -0.6400
      3 C3        -13.1060   -2.7588   57.2166 C.3     1  ZINC000817655807    0.1000
      4 C4        -12.1465   -1.5898   57.4573 C.3     1  ZINC000817655807    0.0500
      5 C5        -10.6684   -1.9585   57.5859 C.3     1  ZINC000817655807    0.1200
      6 N6        -10.5809   -1.6608   56.1409 N.am    1  ZINC000817655807   -0.6500
      7 C7         -9.7532   -2.0423   55.1480 C.2     1  ZINC000817655807    0.5500
      8 O8         -8.8371   -2.8021   55.3806 O.2     1  ZINC000817655807   -0.5100
      9 C9         -9.9662   -1.5246   53.7488 C.3     1  ZINC000817655807   -0.0900
     10 C10        -9.0909   -0.3192   53.5205 C.ar    1  ZINC000817655807   -0.0600
     11 C11        -9.5047    0.9259   53.9546 C.ar    1  ZINC000817655807   -0.0900
     12 C12        -8.7047    2.0349   53.7447 C.ar    1  ZINC000817655807   -0.0300
     13 Cl13       -9.2278    3.5975   54.2909 Cl      1  ZINC000817655807   -0.0500
     14 C14        -7.4845    1.8990   53.0984 C.ar    1  ZINC000817655807    0.0600
     15 O15        -6.7114    3.0003   52.8917 O.3     1  ZINC000817655807   -0.2900
     16 C16        -5.3343    2.7696   52.5748 C.3     1  ZINC000817655807    0.0200
     17 C17        -5.2648    1.6726   51.5038 C.3     1  ZINC000817655807    0.0200
     18 O18        -5.8721    0.4894   52.0339 O.3     1  ZINC000817655807   -0.3000
     19 C19        -7.0676    0.6459   52.6656 C.ar    1  ZINC000817655807    0.0600
     20 C20        -7.8731   -0.4621   52.8823 C.ar    1  ZINC000817655807   -0.0900
     21 C21       -11.7638   -0.7783   56.2194 C.3     1  ZINC000817655807    0.1100
     22 O22       -12.7223   -0.8492   58.5580 O.3     1  ZINC000817655807   -0.3000
     23 C23       -13.8590   -1.4506   58.9403 C.2     1  ZINC000817655807    0.6400
     24 O24       -14.5541   -1.0397   59.8484 O.2     1  ZINC000817655807   -0.5100
     25 H25       -15.9291   -3.0093   59.2510 H       1  ZINC000817655807    0.0900
     26 H26       -15.9213   -3.4271   57.5208 H       1  ZINC000817655807    0.0700
     27 H27       -15.0021   -4.4173   58.6796 H       1  ZINC000817655807    0.0700
     28 H28       -12.5993   -3.7110   57.3746 H       1  ZINC000817655807    0.1000
     29 H29       -13.5288   -2.7089   56.2133 H       1  ZINC000817655807    0.1000
     30 H30       -10.0967   -1.2733   58.2119 H       1  ZINC000817655807    0.1100
     31 H31       -10.4957   -3.0064   57.8308 H       1  ZINC000817655807    0.1000
     32 H32        -9.7081   -2.3025   53.0303 H       1  ZINC000817655807    0.1100
     33 H33       -11.0117   -1.2439   53.6205 H       1  ZINC000817655807    0.1100
     34 H34       -10.4540    1.0335   54.4581 H       1  ZINC000817655807    0.1400
     35 H35        -4.8869    3.6865   52.1913 H       1  ZINC000817655807    0.1300
     36 H36        -4.8008    2.4452   53.4682 H       1  ZINC000817655807    0.0800
     37 H37        -5.8034    1.9944   50.6124 H       1  ZINC000817655807    0.0800
     38 H38        -4.2238    1.4701   51.2519 H       1  ZINC000817655807    0.1300
     39 H39        -7.5501   -1.4372   52.5486 H       1  ZINC000817655807    0.1400
     40 H40       -12.4560   -0.8947   55.3854 H       1  ZINC000817655807    0.1000
     41 H41       -11.5228    0.2630   56.4327 H       1  ZINC000817655807    0.1100
@<TRIPOS>BOND
     1     1     2    1
     2     1    25    1
     3     1    26    1
     4     1    27    1
     5     2    23   am
     6     2     3    1
     7     3     4    1
     8     3    28    1
     9     3    29    1
    10     4    21    1
    11     4     5    1
    12     4    22    1
    13     5     6    1
    14     5    30    1
    15     5    31    1
    16     6     7   am
    17     6    21    1
    18     7     8    2
    19     7     9    1
    20     9    10    1
    21     9    32    1
    22     9    33    1
    23    10    20   ar
    24    10    11   ar
    25    11    12   ar
    26    11    34    1
    27    12    13    1
    28    12    14   ar
    29    14    19   ar
    30    14    15    1
    31    15    16    1
    32    16    17    1
    33    16    35    1
    34    16    36    1
    35    17    18    1
    36    17    37    1
    37    17    38    1
    38    18    19    1
    39    19    20   ar
    40    20    39    1
    41    21    40    1
    42    21    41    1
    43    22    23    1
    44    23    24    2
@<TRIPOS>SUBSTRUCTURE
     1 ZINC000817655807        1 TEMP              0 ****  ****    0 ROOT


##########                                Name:    ZINC000957079511
##########                DOCK_Rotatable_Bonds:                   8
##########                         Heavy_Atoms:                  25
##########                    Molecular_Weight:             362.453
##########                DOCK_Rotatable_Bonds:                   8
##########                       Formal_Charge:        -4.32134e-07
##########                     HBond_Acceptors:                   8
##########                        HBond_Donors:                   2
##########                         Heavy_Atoms:                  25
##########                          Grid_Score:          -29.197487
##########                     Grid_vdw_energy:          -29.364365
##########                      Grid_es_energy:            0.166877
##########           Internal_energy_repulsive:           31.130436

@<TRIPOS>MOLECULE
ZINC000957079511
 47 49 1 0 0
SMALL
USER_CHARGES


@<TRIPOS>ATOM
      1 C1         -7.7569    2.5613   61.3559 C.3     1  ZINC000957079511   -0.0700
      2 C2         -7.0335    2.2653   60.0673 C.2     1  ZINC000957079511    0.0300
      3 C3         -6.9393    1.0615   59.4712 C.2     1  ZINC000957079511   -0.0200
      4 C4         -7.5327   -0.2335   59.9631 C.3     1  ZINC000957079511   -0.0600
      5 C5         -8.9732   -0.3228   59.5295 C.2     1  ZINC000957079511    0.5100
      6 O6         -9.7913    0.4508   59.9802 O.2     1  ZINC000957079511   -0.5200
      7 N7         -9.3523   -1.2624   58.6407 N.am    1  ZINC000957079511   -0.7200
      8 C8        -10.7530   -1.3503   58.2204 C.3     1  ZINC000957079511    0.1400
      9 H9        -11.1241   -0.3772   57.8992 H       1  ZINC000957079511    0.1100
     10 C10       -11.6360   -1.9360   59.3505 C.3     1  ZINC000957079511    0.0800
     11 N11       -12.7940   -2.5280   58.6562 N.am    1  ZINC000957079511   -0.6200
     12 C12       -14.0107   -2.7377   59.1966 C.2     1  ZINC000957079511    0.5400
     13 O13       -14.2224   -2.4321   60.3511 O.2     1  ZINC000957079511   -0.5100
     14 C14       -15.1082   -3.3520   58.3664 C.3     1  ZINC000957079511    0.0500
     15 O15       -16.2142   -2.4497   58.2961 O.3     1  ZINC000957079511   -0.2800
     16 C16       -16.4634   -1.8696   57.0891 C.2     1  ZINC000957079511    0.1200
     17 C17       -15.7248   -2.1202   56.0040 C.2     1  ZINC000957079511   -0.3300
     18 S18       -16.3435   -1.1948   54.6423 S.3     1  ZINC000957079511    0.1300
     19 C19       -17.6067   -0.4988   55.6488 C.2     1  ZINC000957079511   -0.1800
     20 C20       -17.5066   -0.9780   56.8901 C.2     1  ZINC000957079511   -0.1400
     21 C21       -12.4020   -2.8508   57.2764 C.3     1  ZINC000957079511    0.1100
     22 C22       -10.9326   -2.4108   57.1022 C.3     1  ZINC000957079511   -0.1100
     23 H23       -10.2571   -3.2522   57.2573 H       1  ZINC000957079511    0.0900
     24 C24       -10.7134   -1.7908   55.7207 C.3     1  ZINC000957079511   -0.1400
     25 N25        -6.2016    1.2402   58.3321 N.pl3   1  ZINC000957079511   -0.5600
     26 C26        -5.8703    2.5481   58.2720 C.2     1  ZINC000957079511    0.2000
     27 N27        -6.3755    3.1559   59.3104 N.2     1  ZINC000957079511   -0.4900
     28 H28        -8.7930    2.8217   61.1393 H       1  ZINC000957079511    0.0700
     29 H29        -7.7303    1.6809   61.9980 H       1  ZINC000957079511    0.0600
     30 H30        -7.2708    3.3952   61.8622 H       1  ZINC000957079511    0.0700
     31 H31        -6.9746   -1.0711   59.5446 H       1  ZINC000957079511    0.1000
     32 H32        -7.4779   -0.2680   61.0512 H       1  ZINC000957079511    0.1200
     33 H33        -8.6978   -1.8803   58.2792 H       1  ZINC000957079511    0.4000
     34 H34       -11.0900   -2.7033   59.8994 H       1  ZINC000957079511    0.0800
     35 H35       -11.9622   -1.1450   60.0257 H       1  ZINC000957079511    0.0800
     36 H36       -14.7361   -3.5494   57.3611 H       1  ZINC000957079511    0.0900
     37 H37       -15.4306   -4.2868   58.8248 H       1  ZINC000957079511    0.0900
     38 H38       -14.8771   -2.7884   55.9686 H       1  ZINC000957079511    0.1700
     39 H39       -18.3525    0.2059   55.3122 H       1  ZINC000957079511    0.1800
     40 H40       -18.1819   -0.6876   57.6814 H       1  ZINC000957079511    0.1500
     41 H41       -12.4905   -3.9240   57.1074 H       1  ZINC000957079511    0.0800
     42 H42       -13.0361   -2.3093   56.5746 H       1  ZINC000957079511    0.0800
     43 H43       -11.3763   -0.9344   55.5975 H       1  ZINC000957079511    0.0600
     44 H44        -9.6774   -1.4645   55.6292 H       1  ZINC000957079511    0.0600
     45 H45       -10.9302   -2.5319   54.9514 H       1  ZINC000957079511    0.0700
     46 H46        -5.9615    0.5555   57.6885 H       1  ZINC000957079511    0.4200
     47 H47        -5.2874    3.0145   57.4915 H       1  ZINC000957079511    0.2100
@<TRIPOS>BOND
     1     1     2    1
     2     1    28    1
     3     1    29    1
     4     1    30    1
     5     2    27    1
     6     2     3    2
     7     3     4    1
     8     3    25    1
     9     4     5    1
    10     4    31    1
    11     4    32    1
    12     5     6    2
    13     5     7   am
    14     7     8    1
    15     7    33    1
    16     8     9    1
    17     8    22    1
    18     8    10    1
    19    10    11    1
    20    10    34    1
    21    10    35    1
    22    11    12   am
    23    11    21    1
    24    12    13    2
    25    12    14    1
    26    14    15    1
    27    14    36    1
    28    14    37    1
    29    15    16    1
    30    16    20    1
    31    16    17    2
    32    17    18    1
    33    17    38    1
    34    18    19    1
    35    19    20    2
    36    19    39    1
    37    20    40    1
    38    21    22    1
    39    21    41    1
    40    21    42    1
    41    22    23    1
    42    22    24    1
    43    24    43    1
    44    24    44    1
    45    24    45    1
    46    25    26    1
    47    25    46    1
    48    26    27    2
    49    26    47    1
@<TRIPOS>SUBSTRUCTURE
     1 ZINC000957079511        1 TEMP              0 ****  ****    0 ROOT


##########                                Name:    ZINC000774689801
##########                DOCK_Rotatable_Bonds:                   4
##########                         Heavy_Atoms:                  24
##########                    Molecular_Weight:             347.395
##########                DOCK_Rotatable_Bonds:                   4
##########                       Formal_Charge:         -0.00999961
##########                     HBond_Acceptors:                   8
##########                        HBond_Donors:                   1
##########                         Heavy_Atoms:                  24
##########                          Grid_Score:          -29.191687
##########                     Grid_vdw_energy:          -26.333876
##########                      Grid_es_energy:           -2.857810
##########           Internal_energy_repulsive:            5.435407

@<TRIPOS>MOLECULE
ZINC000774689801
 41 44 1 0 0
SMALL
USER_CHARGES


@<TRIPOS>ATOM
      1 C1        -11.1331   -1.4368   54.6884 C.3     1  ZINC000774689801   -0.1200
      2 C2        -10.6195   -0.0242   54.7976 C.2     1  ZINC000774689801    0.0600
      3 C3        -11.2610    0.9186   55.5064 C.2     1  ZINC000774689801   -0.2800
      4 C4        -12.5071    0.7042   56.2451 C.2     1  ZINC000774689801    0.5500
      5 O5        -13.5368    1.2292   55.8661 O.2     1  ZINC000774689801   -0.4900
      6 O6        -12.5132   -0.0756   57.3458 O.3     1  ZINC000774689801   -0.3400
      7 C7        -13.7948   -0.2929   57.9927 C.3     1  ZINC000774689801    0.0900
      8 C8        -14.5237   -1.4490   57.3049 C.3     1  ZINC000774689801   -0.1300
      9 H9        -14.5508   -1.2940   56.2264 H       1  ZINC000774689801    0.1200
     10 C10       -13.8416   -2.7953   57.6411 C.3     1  ZINC000774689801   -0.1300
     11 C11       -15.0549   -3.7456   57.7466 C.3     1  ZINC000774689801    0.1000
     12 N12       -16.1934   -2.8893   58.1000 N.am    1  ZINC000774689801   -0.7400
     13 C13       -15.9259   -1.5926   57.8546 C.2     1  ZINC000774689801    0.5200
     14 O14       -16.6953   -0.6757   58.0495 O.2     1  ZINC000774689801   -0.5100
     15 S15       -10.3965    2.4442   55.4242 S.3     1  ZINC000774689801    0.3000
     16 C16        -9.1519    1.7392   54.3995 C.2     1  ZINC000774689801    0.1000
     17 C17        -9.4438    0.3899   54.1744 C.2     1  ZINC000774689801   -0.2500
     18 C18        -8.4991   -0.3651   53.3294 C.2     1  ZINC000774689801    0.5700
     19 O19        -8.6866   -1.5441   53.0875 O.2     1  ZINC000774689801   -0.5000
     20 N20        -7.4197    0.2801   52.8283 N.am    1  ZINC000774689801   -0.5500
     21 C21        -6.3431   -0.2495   51.9737 C.3     1  ZINC000774689801    0.0900
     22 C22        -5.6550    0.9870   51.3593 C.3     1  ZINC000774689801   -0.1300
     23 C23        -5.9510    2.0715   52.4176 C.3     1  ZINC000774689801   -0.0800
     24 C24        -7.2219    1.5948   53.1008 C.2     1  ZINC000774689801    0.4200
     25 N25        -8.0472    2.2745   53.8518 N.2     1  ZINC000774689801   -0.5100
     26 H26       -10.7214   -2.0368   55.5000 H       1  ZINC000774689801    0.0800
     27 H27       -12.2211   -1.4340   54.7545 H       1  ZINC000774689801    0.1000
     28 H28       -10.8282   -1.8614   53.7319 H       1  ZINC000774689801    0.0800
     29 H29       -13.6350   -0.5375   59.0428 H       1  ZINC000774689801    0.0900
     30 H30       -14.3976    0.6123   57.9182 H       1  ZINC000774689801    0.0800
     31 H31       -13.1724   -3.1048   56.8383 H       1  ZINC000774689801    0.1000
     32 H32       -13.3087   -2.7364   58.5902 H       1  ZINC000774689801    0.0900
     33 H33       -15.2345   -4.2357   56.7896 H       1  ZINC000774689801    0.0800
     34 H34       -14.8856   -4.4886   58.5258 H       1  ZINC000774689801    0.0800
     35 H35       -17.0318   -3.2157   58.4625 H       1  ZINC000774689801    0.4100
     36 H36        -5.6316   -0.8178   52.5728 H       1  ZINC000774689801    0.1000
     37 H37        -6.7610   -0.8778   51.1871 H       1  ZINC000774689801    0.1000
     38 H38        -4.5820    0.8252   51.2563 H       1  ZINC000774689801    0.1100
     39 H39        -6.1029    1.2458   50.3998 H       1  ZINC000774689801    0.0900
     40 H40        -5.1336    2.1360   53.1358 H       1  ZINC000774689801    0.1200
     41 H41        -6.1152    3.0366   51.9384 H       1  ZINC000774689801    0.1200
@<TRIPOS>BOND
     1     1     2    1
     2     1    26    1
     3     1    27    1
     4     1    28    1
     5     2    17    1
     6     2     3    2
     7     3     4    1
     8     3    15    1
     9     4     5    2
    10     4     6    1
    11     6     7    1
    12     7     8    1
    13     7    29    1
    14     7    30    1
    15     8     9    1
    16     8    13    1
    17     8    10    1
    18    10    11    1
    19    10    31    1
    20    10    32    1
    21    11    12    1
    22    11    33    1
    23    11    34    1
    24    12    13   am
    25    12    35    1
    26    13    14    2
    27    15    16    1
    28    16    25    1
    29    16    17    2
    30    17    18    1
    31    18    19    2
    32    18    20   am
    33    20    24    1
    34    20    21    1
    35    21    22    1
    36    21    36    1
    37    21    37    1
    38    22    23    1
    39    22    38    1
    40    22    39    1
    41    23    24    1
    42    23    40    1
    43    23    41    1
    44    24    25    2
@<TRIPOS>SUBSTRUCTURE
     1 ZINC000774689801        1 TEMP              0 ****  ****    0 ROOT


##########                                Name:    ZINC001371344729
##########                DOCK_Rotatable_Bonds:                   9
##########                         Heavy_Atoms:                  24
##########                    Molecular_Weight:             332.399
##########                DOCK_Rotatable_Bonds:                   9
##########                       Formal_Charge:          0.00999983
##########                     HBond_Acceptors:                   6
##########                        HBond_Donors:                   1
##########                         Heavy_Atoms:                  24
##########                          Grid_Score:          -29.171146
##########                     Grid_vdw_energy:          -28.548815
##########                      Grid_es_energy:           -0.622333
##########           Internal_energy_repulsive:           23.693010

@<TRIPOS>MOLECULE
ZINC001371344729
 48 49 1 0 0
SMALL
USER_CHARGES


@<TRIPOS>ATOM
      1 C1        -11.0097   -3.1097   57.8202 C.3     1  ZINC001371344729   -0.1800
      2 C2        -10.1009   -2.6442   56.6808 C.3     1  ZINC001371344729    0.1000
      3 N3        -10.0002   -1.1828   56.7024 N.am    1  ZINC001371344729   -0.6100
      4 C4         -9.2692   -0.5717   57.6558 C.2     1  ZINC001371344729    0.5100
      5 O5         -8.6960   -1.2315   58.4966 O.2     1  ZINC001371344729   -0.5200
      6 C6         -9.1641    0.9315   57.6769 C.3     1  ZINC001371344729   -0.0600
      7 C7         -8.3417    1.3609   58.8645 C.2     1  ZINC001371344729   -0.0100
      8 C8         -7.5716    2.4618   58.9315 C.2     1  ZINC001371344729   -0.1600
      9 C9         -7.3727    3.4861   57.8441 C.3     1  ZINC001371344729   -0.0800
     10 C10        -6.9798    2.4701   60.2154 C.2     1  ZINC001371344729   -0.2100
     11 C11        -7.4311    1.3790   60.8597 C.2     1  ZINC001371344729   -0.0300
     12 O12        -8.2527    0.7089   60.0352 O.3     1  ZINC001371344729   -0.1700
     13 C13       -10.6939   -0.3856   55.6878 C.3     1  ZINC001371344729    0.1200
     14 H14       -10.5400    0.6742   55.8908 H       1  ZINC001371344729    0.1100
     15 C15       -12.1906   -0.7005   55.7275 C.3     1  ZINC001371344729   -0.1600
     16 C16       -10.1376   -0.7258   54.3038 C.3     1  ZINC001371344729    0.1100
     17 N17        -9.0889    0.2339   53.9495 N.am    1  ZINC001371344729   -0.7200
     18 C18        -8.0905   -0.1337   53.1221 C.2     1  ZINC001371344729    0.5900
     19 O19        -8.0610   -1.2618   52.6686 O.2     1  ZINC001371344729   -0.5300
     20 C20        -7.0347    0.8311   52.7672 C.2     1  ZINC001371344729   -0.2300
     21 C21        -7.0190    2.1699   53.0290 C.2     1  ZINC001371344729    0.0200
     22 O22        -5.8835    2.6813   52.5437 O.3     1  ZINC001371344729   -0.1700
     23 C23        -5.1414    1.7290   51.9574 C.2     1  ZINC001371344729   -0.0100
     24 C24        -3.8033    1.9457   51.2991 C.3     1  ZINC001371344729   -0.0800
     25 C25        -5.7810    0.5532   52.0512 C.2     1  ZINC001371344729   -0.1600
     26 H26       -12.0014   -2.6752   57.6945 H       1  ZINC001371344729    0.0700
     27 H27       -11.0847   -4.1970   57.8040 H       1  ZINC001371344729    0.0700
     28 H28       -10.5906   -2.7884   58.7737 H       1  ZINC001371344729    0.0600
     29 H29       -10.5202   -2.9653   55.7273 H       1  ZINC001371344729    0.0900
     30 H30        -9.1091   -3.0786   56.8065 H       1  ZINC001371344729    0.0800
     31 H31       -10.1616    1.3646   57.7501 H       1  ZINC001371344729    0.1100
     32 H32        -8.6852    1.2752   56.7600 H       1  ZINC001371344729    0.1200
     33 H33        -8.1237    4.2701   57.9418 H       1  ZINC001371344729    0.0700
     34 H34        -6.3780    3.9227   57.9339 H       1  ZINC001371344729    0.0700
     35 H35        -7.4727    3.0065   56.8704 H       1  ZINC001371344729    0.0600
     36 H36        -6.2984    3.2119   60.6053 H       1  ZINC001371344729    0.1500
     37 H37        -7.1722    1.0880   61.8671 H       1  ZINC001371344729    0.2000
     38 H38       -12.5869   -0.4581   56.7136 H       1  ZINC001371344729    0.0700
     39 H39       -12.7068   -0.1073   54.9726 H       1  ZINC001371344729    0.0700
     40 H40       -12.3444   -1.7603   55.5246 H       1  ZINC001371344729    0.0700
     41 H41        -9.7193   -1.7323   54.3176 H       1  ZINC001371344729    0.0800
     42 H42       -10.9397   -0.6759   53.5675 H       1  ZINC001371344729    0.0800
     43 H43        -9.1132    1.1340   54.3103 H       1  ZINC001371344729    0.4000
     44 H44        -7.7918    2.7222   53.5429 H       1  ZINC001371344729    0.2100
     45 H45        -3.9508    2.1825   50.2453 H       1  ZINC001371344729    0.0800
     46 H46        -3.2871    2.7718   51.7882 H       1  ZINC001371344729    0.0800
     47 H47        -3.2039    1.0396   51.3873 H       1  ZINC001371344729    0.0900
     48 H48        -5.4437   -0.4022   51.6773 H       1  ZINC001371344729    0.1600
@<TRIPOS>BOND
     1     1     2    1
     2     1    26    1
     3     1    27    1
     4     1    28    1
     5     2     3    1
     6     2    29    1
     7     2    30    1
     8     3     4   am
     9     3    13    1
    10     4     5    2
    11     4     6    1
    12     6     7    1
    13     6    31    1
    14     6    32    1
    15     7    12    1
    16     7     8    2
    17     8     9    1
    18     8    10    1
    19     9    33    1
    20     9    34    1
    21     9    35    1
    22    10    11    2
    23    10    36    1
    24    11    12    1
    25    11    37    1
    26    13    14    1
    27    13    15    1
    28    13    16    1
    29    15    38    1
    30    15    39    1
    31    15    40    1
    32    16    17    1
    33    16    41    1
    34    16    42    1
    35    17    18   am
    36    17    43    1
    37    18    19    2
    38    18    20    1
    39    20    25    1
    40    20    21    2
    41    21    22    1
    42    21    44    1
    43    22    23    1
    44    23    24    1
    45    23    25    2
    46    24    45    1
    47    24    46    1
    48    24    47    1
    49    25    48    1
@<TRIPOS>SUBSTRUCTURE
     1 ZINC001371344729        1 TEMP              0 ****  ****    0 ROOT


##########                                Name:    ZINC000550011575
##########                DOCK_Rotatable_Bonds:                   6
##########                         Heavy_Atoms:                  28
##########                    Molecular_Weight:             423.935
##########                DOCK_Rotatable_Bonds:                   6
##########                       Formal_Charge:          -0.0100002
##########                     HBond_Acceptors:                   7
##########                        HBond_Donors:                   0
##########                         Heavy_Atoms:                  28
##########                          Grid_Score:          -29.152084
##########                     Grid_vdw_energy:          -29.264132
##########                      Grid_es_energy:            0.112048
##########           Internal_energy_repulsive:           31.351828

@<TRIPOS>MOLECULE
ZINC000550011575
 51 53 1 0 0
SMALL
USER_CHARGES


@<TRIPOS>ATOM
      1 C1        -10.5172   -1.2374   53.2968 C.3     1  ZINC000550011575   -0.1400
      2 C2        -10.1395   -0.0556   54.1922 C.3     1  ZINC000550011575   -0.6100
      3 H3         -9.2004   -0.2714   54.7017 H       1  ZINC000550011575    0.1500
      4 C4         -9.9803    1.1831   53.3487 C.2     1  ZINC000550011575    0.5400
      5 O5        -10.9451    1.6699   52.7981 O.2     1  ZINC000550011575   -0.5100
      6 N6         -8.7658    1.7496   53.2060 N.am    1  ZINC000550011575   -0.6000
      7 C7         -8.6113    2.9547   52.3873 C.3     1  ZINC000550011575    0.0600
      8 C8         -7.6002    1.1603   53.8695 C.3     1  ZINC000550011575    0.1500
      9 C9         -6.3439    1.8098   53.3488 C.ar    1  ZINC000550011575   -0.1500
     10 C10        -5.8601    2.9604   53.9470 C.ar    1  ZINC000550011575    0.1400
     11 F11        -6.5139    3.5020   54.9980 F       1  ZINC000550011575   -0.1100
     12 C12        -4.7053    3.5559   53.4679 C.ar    1  ZINC000550011575   -0.1500
     13 C13        -4.0366    3.0014   52.3933 C.ar    1  ZINC000550011575   -0.0700
     14 C14        -4.5198    1.8521   51.7958 C.ar    1  ZINC000550011575   -0.1300
     15 C15        -5.6704    1.2530   52.2763 C.ar    1  ZINC000550011575    0.0000
     16 Cl16       -6.2759   -0.1905   51.5258 Cl      1  ZINC000550011575   -0.0500
     17 S17       -11.4462    0.2137   55.4213 S.o2    1  ZINC000550011575    2.4500
     18 O18       -11.1495    1.4001   56.1450 O.2     1  ZINC000550011575   -0.9200
     19 O19       -12.7065    0.0912   54.7764 O.2     1  ZINC000550011575   -0.9100
     20 C20       -11.2212   -1.2081   56.5251 C.3     1  ZINC000550011575   -0.5300
     21 H21       -10.6561   -1.9813   56.0045 H       1  ZINC000550011575    0.1500
     22 C22       -12.5892   -1.7624   56.9177 C.3     1  ZINC000550011575   -0.1100
     23 C23       -12.3885   -2.8162   58.0130 C.3     1  ZINC000550011575   -0.1100
     24 C24       -11.9507   -2.1050   59.2918 C.3     1  ZINC000550011575   -0.0900
     25 C25       -10.7855   -1.1908   59.0167 C.ar    1  ZINC000550011575   -0.0600
     26 C26       -10.0279   -0.7651   60.0998 C.ar    1  ZINC000550011575   -0.1200
     27 C27        -8.9512    0.0776   59.9143 C.ar    1  ZINC000550011575   -0.1100
     28 C28        -8.6238    0.5027   58.6405 C.ar    1  ZINC000550011575   -0.1100
     29 C29        -9.3739    0.0789   57.5627 C.ar    1  ZINC000550011575   -0.1500
     30 C30       -10.4564   -0.7720   57.7473 C.ar    1  ZINC000550011575   -0.0800
     31 H31       -10.4723   -2.1602   53.8752 H       1  ZINC000550011575    0.0900
     32 H32       -11.5286   -1.0960   52.9161 H       1  ZINC000550011575    0.0900
     33 H33        -9.8196   -1.2978   52.4615 H       1  ZINC000550011575    0.0800
     34 H34        -8.7483    3.8379   53.0113 H       1  ZINC000550011575    0.0700
     35 H35        -7.6133    2.9707   51.9492 H       1  ZINC000550011575    0.0800
     36 H36        -9.3571    2.9521   51.5925 H       1  ZINC000550011575    0.0700
     37 H37        -7.6739    1.3221   54.9449 H       1  ZINC000550011575    0.1000
     38 H38        -7.5678    0.0902   53.6645 H       1  ZINC000550011575    0.1100
     39 H39        -4.3275    4.4539   53.9340 H       1  ZINC000550011575    0.1500
     40 H40        -3.1362    3.4663   52.0197 H       1  ZINC000550011575    0.1500
     41 H41        -3.9966    1.4198   50.9557 H       1  ZINC000550011575    0.1400
     42 H42       -13.2174   -0.9556   57.2953 H       1  ZINC000550011575    0.0800
     43 H43       -13.0624   -2.2209   56.0494 H       1  ZINC000550011575    0.0900
     44 H44       -13.3250   -3.3453   58.1895 H       1  ZINC000550011575    0.0800
     45 H45       -11.6189   -3.5240   57.7048 H       1  ZINC000550011575    0.0700
     46 H46       -12.7835   -1.5188   59.6802 H       1  ZINC000550011575    0.0800
     47 H47       -11.6576   -2.8476   60.0338 H       1  ZINC000550011575    0.0800
     48 H48       -10.2837   -1.0961   61.0954 H       1  ZINC000550011575    0.1300
     49 H49        -8.3665    0.4042   60.7616 H       1  ZINC000550011575    0.1300
     50 H50        -7.7839    1.1646   58.4893 H       1  ZINC000550011575    0.1300
     51 H51        -9.1178    0.4120   56.5679 H       1  ZINC000550011575    0.1700
@<TRIPOS>BOND
     1     1     2    1
     2     1    31    1
     3     1    32    1
     4     1    33    1
     5     2     3    1
     6     2     4    1
     7     2    17    1
     8     4     5    2
     9     4     6   am
    10     6     7    1
    11     6     8    1
    12     7    34    1
    13     7    35    1
    14     7    36    1
    15     8     9    1
    16     8    37    1
    17     8    38    1
    18     9    15   ar
    19     9    10   ar
    20    10    11    1
    21    10    12   ar
    22    12    13   ar
    23    12    39    1
    24    13    14   ar
    25    13    40    1
    26    14    15   ar
    27    14    41    1
    28    15    16    1
    29    17    18    2
    30    17    19    2
    31    17    20    1
    32    20    21    1
    33    20    30    1
    34    20    22    1
    35    22    23    1
    36    22    42    1
    37    22    43    1
    38    23    24    1
    39    23    44    1
    40    23    45    1
    41    24    25    1
    42    24    46    1
    43    24    47    1
    44    25    30   ar
    45    25    26   ar
    46    26    27   ar
    47    26    48    1
    48    27    28   ar
    49    27    49    1
    50    28    29   ar
    51    28    50    1
    52    29    30   ar
    53    29    51    1
@<TRIPOS>SUBSTRUCTURE
     1 ZINC000550011575        1 TEMP              0 ****  ****    0 ROOT


##########                                Name:    ZINC000193795672
##########                DOCK_Rotatable_Bonds:                  10
##########                         Heavy_Atoms:                  23
##########                    Molecular_Weight:              332.47
##########                DOCK_Rotatable_Bonds:                  10
##########                       Formal_Charge:        -2.98023e-07
##########                     HBond_Acceptors:                   6
##########                        HBond_Donors:                   3
##########                         Heavy_Atoms:                  23
##########                          Grid_Score:          -29.143517
##########                     Grid_vdw_energy:          -29.268080
##########                      Grid_es_energy:            0.124564
##########           Internal_energy_repulsive:           10.355383

@<TRIPOS>MOLECULE
ZINC000193795672
 47 48 1 0 0
SMALL
USER_CHARGES


@<TRIPOS>ATOM
      1 C1         -4.4902    1.8046   51.2325 C.3     1  <0>        -0.1000
      2 C2         -5.7395    1.4735   52.0077 C.ar    1  <0>        -0.2000
      3 C3         -6.3995    2.4596   52.7285 C.ar    1  <0>        -0.0300
      4 C4         -7.5430    2.1137   53.4261 C.ar    1  <0>        -0.2400
      5 C5         -7.9902    0.7974   53.3821 C.ar    1  <0>         0.4000
      6 N6         -9.1378    0.4362   54.0783 N.pl3   1  <0>        -0.7300
      7 C7         -9.6870   -0.9144   53.9349 C.3     1  <0>         0.1300
      8 C8        -11.1022   -0.9537   54.5151 C.3     1  <0>        -0.1400
      9 C9        -11.0463   -1.4450   55.9630 C.3     1  <0>         0.1400
     10 N10       -12.1358   -0.8340   56.7284 N.am    1  <0>        -0.7500
     11 C11       -12.2465   -1.0716   58.0504 C.2     1  <0>         0.7100
     12 O12       -11.4410   -1.7918   58.6082 O.2     1  <0>        -0.5900
     13 N13       -13.2498   -0.5109   58.7543 N.am    1  <0>        -0.7400
     14 C14       -13.3710   -0.7706   60.1910 C.3     1  <0>         0.1700
     15 H15       -12.4193   -1.1371   60.5755 H       1  <0>         0.0900
     16 C16       -13.7483    0.5244   60.9132 C.3     1  <0>        -0.1700
     17 C17       -14.4565   -1.8223   60.4293 C.3     1  <0>        -0.0600
     18 C18       -15.1837   -2.0951   59.1379 C.2     1  <0>        -0.1700
     19 C19       -15.9459   -1.2170   58.4843 C.2     1  <0>        -0.1400
     20 C20       -16.5140   -1.6940   57.3156 C.2     1  <0>        -0.1300
     21 C21       -16.2131   -2.9595   57.0201 C.2     1  <0>        -0.2100
     22 S22       -15.1509   -3.6177   58.2579 S.3     1  <0>         0.0900
     23 N23        -7.3327   -0.1146   52.6824 N.ar    1  <0>        -0.5400
     24 C24        -6.2423    0.1877   52.0037 C.ar    1  <0>         0.1500
     25 H25        -4.7602    2.1104   50.2217 H       1  <0>         0.0700
     26 H26        -3.9596    2.6174   51.7284 H       1  <0>         0.0600
     27 H27        -3.8473    0.9256   51.1867 H       1  <0>         0.0700
     28 H28        -6.0283    3.4737   52.7446 H       1  <0>         0.1300
     29 H29        -8.0810    2.8558   53.9975 H       1  <0>         0.1300
     30 H30        -9.5750    1.0784   54.6593 H       1  <0>         0.4000
     31 H31        -9.7197   -1.1831   52.8790 H       1  <0>         0.0700
     32 H32        -9.0549   -1.6225   54.4707 H       1  <0>         0.0700
     33 H33       -11.5342    0.0467   54.4873 H       1  <0>         0.0800
     34 H34       -11.7182   -1.6320   53.9248 H       1  <0>         0.0800
     35 H35       -11.1519   -2.5296   55.9830 H       1  <0>         0.0700
     36 H36       -10.0902   -1.1648   56.4051 H       1  <0>         0.0700
     37 H37       -12.7777   -0.2585   56.2837 H       1  <0>         0.4000
     38 H38       -13.8917    0.0646   58.3095 H       1  <0>         0.3900
     39 H39       -14.7001    0.8909   60.5287 H       1  <0>         0.0600
     40 H40       -13.8386    0.3312   61.9822 H       1  <0>         0.0700
     41 H41       -12.9751    1.2736   60.7435 H       1  <0>         0.0700
     42 H42       -13.9974   -2.7429   60.7894 H       1  <0>         0.1000
     43 H43       -15.1627   -1.4533   61.1730 H       1  <0>         0.0800
     44 H44       -16.1078   -0.2103   58.8401 H       1  <0>         0.1400
     45 H45       -17.1528   -1.0876   56.6905 H       1  <0>         0.1400
     46 H46       -16.5649   -3.4967   56.1517 H       1  <0>         0.1600
     47 H47        -5.7321   -0.5825   51.4443 H       1  <0>         0.1500
@<TRIPOS>BOND
     1     1     2    1
     2     1    25    1
     3     1    26    1
     4     1    27    1
     5     2    24   ar
     6     2     3   ar
     7     3     4   ar
     8     3    28    1
     9     4     5   ar
    10     4    29    1
    11     5     6    1
    12     5    23   ar
    13     6     7    1
    14     6    30    1
    15     7     8    1
    16     7    31    1
    17     7    32    1
    18     8     9    1
    19     8    33    1
    20     8    34    1
    21     9    10    1
    22     9    35    1
    23     9    36    1
    24    10    11   am
    25    10    37    1
    26    11    12    2
    27    11    13   am
    28    13    14    1
    29    13    38    1
    30    14    15    1
    31    14    16    1
    32    14    17    1
    33    16    39    1
    34    16    40    1
    35    16    41    1
    36    17    18    1
    37    17    42    1
    38    17    43    1
    39    18    22    1
    40    18    19    2
    41    19    20    1
    42    19    44    1
    43    20    21    2
    44    20    45    1
    45    21    22    1
    46    21    46    1
    47    23    24   ar
    48    24    47    1
@<TRIPOS>SUBSTRUCTURE
     1 <0>         1 TEMP              0 ****  ****    0 ROOT


##########                                Name:    ZINC001141221454
##########                DOCK_Rotatable_Bonds:                   7
##########                         Heavy_Atoms:                  27
##########                    Molecular_Weight:             369.439
##########                DOCK_Rotatable_Bonds:                   7
##########                       Formal_Charge:          0.00999935
##########                     HBond_Acceptors:                   6
##########                        HBond_Donors:                   1
##########                         Heavy_Atoms:                  27
##########                          Grid_Score:          -29.128340
##########                     Grid_vdw_energy:          -29.738089
##########                      Grid_es_energy:            0.609749
##########           Internal_energy_repulsive:           13.411048

@<TRIPOS>MOLECULE
ZINC001141221454
 51 54 1 0 0
SMALL
USER_CHARGES


@<TRIPOS>ATOM
      1 C1         -1.3398    3.0914   52.5426 C.3     1  ZINC001141221454    0.0300
      2 O2         -2.6928    2.8529   52.1492 O.3     1  ZINC001141221454   -0.3100
      3 C3         -3.6671    3.3382   52.9637 C.ar    1  ZINC001141221454    0.0900
      4 C4         -3.3418    4.2047   53.9956 C.ar    1  ZINC001141221454   -0.1800
      5 C5         -4.3340    4.6974   54.8223 C.ar    1  ZINC001141221454   -0.0900
      6 C6         -5.6505    4.3273   54.6216 C.ar    1  ZINC001141221454   -0.1200
      7 C7         -5.9795    3.4627   53.5935 C.ar    1  ZINC001141221454   -0.0800
      8 C8         -7.4159    3.0609   53.3779 C.3     1  ZINC001141221454    0.0900
      9 N9         -7.7203    1.8762   54.1913 N.3     1  ZINC001141221454   -0.5100
     10 C10        -8.5389    2.2402   55.3768 C.3     1  ZINC001141221454    0.0300
     11 C11        -9.1944    0.8954   55.7857 C.3     1  ZINC001141221454   -0.0700
     12 C12        -9.4775    0.2294   54.4266 C.3     1  ZINC001141221454   -0.1000
     13 C13       -10.8878   -0.1894   54.0320 C.3     1  ZINC001141221454   -0.1400
     14 C14        -9.8243   -1.2505   54.3300 C.3     1  ZINC001141221454   -0.1800
     15 H15        -9.4193   -1.8085   53.4858 H       1  ZINC001141221454    0.1300
     16 C16        -9.9523   -2.0219   55.6181 C.2     1  ZINC001141221454    0.5500
     17 O17        -9.1763   -2.9203   55.8667 O.2     1  ZINC001141221454   -0.5300
     18 N18       -10.9291   -1.7137   56.4940 N.am    1  ZINC001141221454   -0.7300
     19 C19       -11.0547   -2.4648   57.7455 C.3     1  ZINC001141221454    0.1700
     20 C20       -12.4943   -2.4614   58.1912 C.ar    1  ZINC001141221454   -0.1600
     21 C21       -13.5182   -2.5106   57.2579 C.ar    1  ZINC001141221454   -0.0600
     22 C22       -14.8277   -2.5059   57.7140 C.ar    1  ZINC001141221454   -0.1700
     23 C23       -15.0670   -2.4527   59.0738 C.ar    1  ZINC001141221454    0.1100
     24 N24       -14.0676   -2.4067   59.9334 N.ar    1  ZINC001141221454   -0.4800
     25 C25       -12.8105   -2.4149   59.5360 C.ar    1  ZINC001141221454    0.1200
     26 C26        -8.5286    0.8999   53.4254 C.3     1  ZINC001141221454    0.0700
     27 C27        -4.9917    2.9711   52.7599 C.ar    1  ZINC001141221454    0.0900
     28 F28        -5.3126    2.1265   51.7554 F       1  ZINC001141221454   -0.1300
     29 H29        -0.6650    2.6529   51.8074 H       1  ZINC001141221454    0.1000
     30 H30        -1.1630    4.1653   52.6031 H       1  ZINC001141221454    0.0600
     31 H31        -1.1596    2.6380   53.5173 H       1  ZINC001141221454    0.0600
     32 H32        -2.3135    4.4945   54.1539 H       1  ZINC001141221454    0.1400
     33 H33        -4.0801    5.3722   55.6264 H       1  ZINC001141221454    0.1300
     34 H34        -6.4237    4.7138   55.2690 H       1  ZINC001141221454    0.1300
     35 H35        -8.0706    3.8813   53.6715 H       1  ZINC001141221454    0.0600
     36 H36        -7.5740    2.8289   52.3247 H       1  ZINC001141221454    0.0900
     37 H37        -7.9059    2.6188   56.1793 H       1  ZINC001141221454    0.0800
     38 H38        -9.3000    2.9727   55.1080 H       1  ZINC001141221454    0.0500
     39 H39        -8.5038    0.2922   56.3751 H       1  ZINC001141221454    0.0900
     40 H40       -10.1217    1.0679   56.3321 H       1  ZINC001141221454    0.0700
     41 H41       -11.6792   -0.0491   54.7681 H       1  ZINC001141221454    0.1000
     42 H42       -11.1821   -0.0497   52.9918 H       1  ZINC001141221454    0.1100
     43 H43       -11.5490   -0.9944   56.2958 H       1  ZINC001141221454    0.4000
     44 H44       -10.7257   -3.4918   57.5875 H       1  ZINC001141221454    0.0800
     45 H45       -10.4359   -1.9990   58.5125 H       1  ZINC001141221454    0.0800
     46 H46       -13.3011   -2.5513   56.2007 H       1  ZINC001141221454    0.1400
     47 H47       -15.6503   -2.5431   57.0151 H       1  ZINC001141221454    0.1400
     48 H48       -16.0840   -2.4482   59.4371 H       1  ZINC001141221454    0.1600
     49 H49       -12.0186   -2.3761   60.2694 H       1  ZINC001141221454    0.1600
     50 H50        -9.1026    1.4143   52.6546 H       1  ZINC001141221454    0.0500
     51 H51        -7.8783    0.1529   52.9703 H       1  ZINC001141221454    0.0900
@<TRIPOS>BOND
     1     1     2    1
     2     1    29    1
     3     1    30    1
     4     1    31    1
     5     2     3    1
     6     3    27   ar
     7     3     4   ar
     8     4     5   ar
     9     4    32    1
    10     5     6   ar
    11     5    33    1
    12     6     7   ar
    13     6    34    1
    14     7     8    1
    15     7    27   ar
    16     8     9    1
    17     8    35    1
    18     8    36    1
    19     9    26    1
    20     9    10    1
    21    10    11    1
    22    10    37    1
    23    10    38    1
    24    11    12    1
    25    11    39    1
    26    11    40    1
    27    12    14    1
    28    12    13    1
    29    12    26    1
    30    13    14    1
    31    13    41    1
    32    13    42    1
    33    14    15    1
    34    14    16    1
    35    16    17    2
    36    16    18   am
    37    18    19    1
    38    18    43    1
    39    19    20    1
    40    19    44    1
    41    19    45    1
    42    20    25   ar
    43    20    21   ar
    44    21    22   ar
    45    21    46    1
    46    22    23   ar
    47    22    47    1
    48    23    24   ar
    49    23    48    1
    50    24    25   ar
    51    25    49    1
    52    26    50    1
    53    26    51    1
    54    27    28    1
@<TRIPOS>SUBSTRUCTURE
     1 ZINC001141221454        1 TEMP              0 ****  ****    0 ROOT


##########                                Name:    ZINC001282645012
##########                DOCK_Rotatable_Bonds:                   9
##########                         Heavy_Atoms:                  27
##########                    Molecular_Weight:             372.511
##########                DOCK_Rotatable_Bonds:                   9
##########                       Formal_Charge:          -0.0200004
##########                     HBond_Acceptors:                   6
##########                        HBond_Donors:                   1
##########                         Heavy_Atoms:                  27
##########                          Grid_Score:          -29.121222
##########                     Grid_vdw_energy:          -27.624214
##########                      Grid_es_energy:           -1.497007
##########           Internal_energy_repulsive:           34.866695

@<TRIPOS>MOLECULE
ZINC001282645012
 59 61 1 0 0
SMALL
USER_CHARGES


@<TRIPOS>ATOM
      1 C1         -6.5658    0.6900   63.5094 C.2     1  ZINC001282645012   -0.1900
      2 C2         -6.8762    1.9554   63.6456 C.2     1  ZINC001282645012   -0.1300
      3 C3         -8.0930    2.3513   64.4417 C.3     1  ZINC001282645012   -0.0500
      4 C4         -7.8484    2.0632   65.9243 C.3     1  ZINC001282645012   -0.1500
      5 C5         -8.3638    3.8450   64.2503 C.3     1  ZINC001282645012   -0.1400
      6 C6         -9.2840    1.5599   63.9659 C.2     1  ZINC001282645012    0.5500
      7 O7         -9.9624    0.9472   64.7628 O.2     1  ZINC001282645012   -0.5300
      8 N8         -9.5951    1.5331   62.6548 N.am    1  ZINC001282645012   -0.6300
      9 C9         -8.9361    2.1898   61.4751 C.3     1  ZINC001282645012    0.1200
     10 H10        -8.0601    2.7987   61.6979 H       1  ZINC001282645012    0.1300
     11 C11       -10.1413    2.9507   60.8450 C.3     1  ZINC001282645012   -0.1300
     12 C12       -11.3481    2.0295   61.1502 C.3     1  ZINC001282645012   -0.1300
     13 C13       -10.7038    0.8321   61.9223 C.3     1  ZINC001282645012    0.1200
     14 H14       -11.3866    0.2487   62.5401 H       1  ZINC001282645012    0.1200
     15 C15        -9.9208    0.0274   60.8414 C.3     1  ZINC001282645012    0.1300
     16 H16        -9.5841   -0.9282   61.2430 H       1  ZINC001282645012    0.1000
     17 N17       -10.7491   -0.1782   59.6506 N.am    1  ZINC001282645012   -0.7100
     18 C18       -11.4691   -1.3098   59.5177 C.2     1  ZINC001282645012    0.5100
     19 O19       -11.4302   -2.1585   60.3832 O.2     1  ZINC001282645012   -0.5100
     20 C20       -12.3225   -1.5205   58.2936 C.3     1  ZINC001282645012    0.1200
     21 H21       -12.5125   -0.5606   57.8135 H       1  ZINC001282645012    0.1300
     22 C22       -11.5929   -2.4442   57.3161 C.3     1  ZINC001282645012   -0.1100
     23 C23       -10.2479   -1.8227   56.9344 C.3     1  ZINC001282645012   -0.1000
     24 C24        -9.5418   -2.7205   55.9165 C.3     1  ZINC001282645012   -0.1500
     25 C25       -10.4805   -0.4407   56.3207 C.3     1  ZINC001282645012   -0.1500
     26 N26       -13.5954   -2.1311   58.6850 N.pl3   1  ZINC001282645012   -0.4500
     27 C27       -14.3619   -2.9706   57.9226 C.2     1  ZINC001282645012   -0.0600
     28 C28       -15.4390   -3.2949   58.6631 C.2     1  ZINC001282645012   -0.0200
     29 N29       -15.3331   -2.6703   59.8453 N.2     1  ZINC001282645012   -0.4900
     30 C30       -14.2287   -1.9754   59.8675 C.2     1  ZINC001282645012    0.1900
     31 C31        -8.6830    0.9600   60.5517 C.3     1  ZINC001282645012   -0.1400
     32 H32        -7.1819   -0.0695   63.9677 H       1  ZINC001282645012    0.1000
     33 H33        -5.6963    0.4060   62.9352 H       1  ZINC001282645012    0.1000
     34 H34        -6.2602    2.7149   63.1873 H       1  ZINC001282645012    0.1100
     35 H35        -6.9870    2.6357   66.2684 H       1  ZINC001282645012    0.0700
     36 H36        -8.7285    2.3497   66.5000 H       1  ZINC001282645012    0.0700
     37 H37        -7.6555    0.9992   66.0607 H       1  ZINC001282645012    0.0600
     38 H38        -8.5379    4.0503   63.1941 H       1  ZINC001282645012    0.0600
     39 H39        -9.2439    4.1314   64.8261 H       1  ZINC001282645012    0.0700
     40 H40        -7.5024    4.4174   64.5944 H       1  ZINC001282645012    0.0700
     41 H41       -10.2714    3.9236   61.3190 H       1  ZINC001282645012    0.0800
     42 H42       -10.0055    3.0616   59.7692 H       1  ZINC001282645012    0.0800
     43 H43       -12.0766    2.5456   61.7755 H       1  ZINC001282645012    0.0700
     44 H44       -11.8106    1.6837   60.2258 H       1  ZINC001282645012    0.0800
     45 H45       -10.7793    0.5000   58.9578 H       1  ZINC001282645012    0.4000
     46 H46       -11.4251   -3.4125   57.7877 H       1  ZINC001282645012    0.0900
     47 H47       -12.1993   -2.5767   56.4201 H       1  ZINC001282645012    0.0800
     48 H48        -9.6271   -1.7250   57.8250 H       1  ZINC001282645012    0.0700
     49 H49       -10.1627   -2.8183   55.0259 H       1  ZINC001282645012    0.0600
     50 H50        -8.5836   -2.2778   55.6446 H       1  ZINC001282645012    0.0600
     51 H51        -9.3762   -3.7051   56.3537 H       1  ZINC001282645012    0.0500
     52 H52       -10.9055    0.2241   57.0729 H       1  ZINC001282645012    0.0600
     53 H53        -9.5317   -0.0341   55.9709 H       1  ZINC001282645012    0.0600
     54 H54       -11.1703   -0.5273   55.4812 H       1  ZINC001282645012    0.0600
     55 H55       -14.1449   -3.3079   56.9198 H       1  ZINC001282645012    0.1700
     56 H56       -16.2466   -3.9439   58.3584 H       1  ZINC001282645012    0.1700
     57 H57       -13.8819   -1.3707   60.6924 H       1  ZINC001282645012    0.2000
     58 H58        -8.6798    1.2813   59.5101 H       1  ZINC001282645012    0.0900
     59 H59        -7.7520    0.4508   60.8003 H       1  ZINC001282645012    0.0900
@<TRIPOS>BOND
     1     1     2    2
     2     1    32    1
     3     1    33    1
     4     2     3    1
     5     2    34    1
     6     3     4    1
     7     3     5    1
     8     3     6    1
     9     4    35    1
    10     4    36    1
    11     4    37    1
    12     5    38    1
    13     5    39    1
    14     5    40    1
    15     6     7    2
    16     6     8   am
    17     8    13    1
    18     8     9    1
    19     9    10    1
    20     9    31    1
    21     9    11    1
    22    11    12    1
    23    11    41    1
    24    11    42    1
    25    12    13    1
    26    12    43    1
    27    12    44    1
    28    13    14    1
    29    13    15    1
    30    15    16    1
    31    15    17    1
    32    15    31    1
    33    17    18   am
    34    17    45    1
    35    18    19    2
    36    18    20    1
    37    20    21    1
    38    20    22    1
    39    20    26    1
    40    22    23    1
    41    22    46    1
    42    22    47    1
    43    23    24    1
    44    23    25    1
    45    23    48    1
    46    24    49    1
    47    24    50    1
    48    24    51    1
    49    25    52    1
    50    25    53    1
    51    25    54    1
    52    26    30    1
    53    26    27    1
    54    27    28    2
    55    27    55    1
    56    28    29    1
    57    28    56    1
    58    29    30    2
    59    30    57    1
    60    31    58    1
    61    31    59    1
@<TRIPOS>SUBSTRUCTURE
     1 ZINC001282645012        1 TEMP              0 ****  ****    0 ROOT


##########                                Name:    ZINC000745364361
##########                DOCK_Rotatable_Bonds:                   8
##########                         Heavy_Atoms:                  29
##########                    Molecular_Weight:             398.434
##########                DOCK_Rotatable_Bonds:                   8
##########                       Formal_Charge:          0.00999923
##########                     HBond_Acceptors:                   7
##########                        HBond_Donors:                   1
##########                         Heavy_Atoms:                  29
##########                          Grid_Score:          -29.117672
##########                     Grid_vdw_energy:          -29.601395
##########                      Grid_es_energy:            0.483722
##########           Internal_energy_repulsive:           18.060268

@<TRIPOS>MOLECULE
ZINC000745364361
 52 54 1 0 0
SMALL
USER_CHARGES


@<TRIPOS>ATOM
      1 C1         -6.3641    0.2938   52.3411 C.3     1  ZINC000745364361   -0.1700
      2 C2         -7.1682    1.4635   52.9123 C.3     1  ZINC000745364361    0.0700
      3 H3         -7.7336    1.9409   52.1120 H       1  ZINC000745364361    0.1100
      4 O4         -6.2617    2.4293   53.5072 O.3     1  ZINC000745364361   -0.3200
      5 C5         -5.7649    3.3778   52.6976 C.2     1  ZINC000745364361    0.4700
      6 O6         -6.1561    3.4647   51.5578 O.2     1  ZINC000745364361   -0.4900
      7 C7         -4.7194    4.3343   53.2105 C.3     1  ZINC000745364361   -0.0400
      8 H8         -4.8556    5.3080   52.7401 H       1  ZINC000745364361    0.1200
      9 C9         -4.8590    4.4768   54.7275 C.3     1  ZINC000745364361   -0.1400
     10 C10        -3.3481    3.8040   52.8800 C.ar    1  ZINC000745364361   -0.0500
     11 C11        -2.2546    4.2040   53.6248 C.ar    1  ZINC000745364361   -0.1000
     12 C12        -0.9958    3.7183   53.3226 C.ar    1  ZINC000745364361   -0.0900
     13 C13        -0.8296    2.8322   52.2755 C.ar    1  ZINC000745364361   -0.1500
     14 C14        -1.9245    2.4304   51.5288 C.ar    1  ZINC000745364361    0.1000
     15 F15        -1.7632    1.5642   50.5047 F       1  ZINC000745364361   -0.1400
     16 C16        -3.1851    2.9134   51.8356 C.ar    1  ZINC000745364361   -0.1400
     17 C17        -8.1192    0.9532   53.9641 C.2     1  ZINC000745364361    0.5200
     18 O18        -7.8905    1.1555   55.1380 O.2     1  ZINC000745364361   -0.5000
     19 N19        -9.2238    0.2721   53.6003 N.am    1  ZINC000745364361   -0.6700
     20 C20       -10.1078   -0.2023   54.5779 C.ar    1  ZINC000745364361    0.1200
     21 C21       -10.0649   -1.5353   54.9647 C.ar    1  ZINC000745364361   -0.1100
     22 C22       -10.9361   -2.0028   55.9281 C.ar    1  ZINC000745364361   -0.1400
     23 C23       -11.8551   -1.1400   56.5108 C.ar    1  ZINC000745364361    0.1500
     24 N24       -12.7393   -1.6144   57.4881 N.am    1  ZINC000745364361   -0.5600
     25 C25       -12.3648   -1.8895   58.8802 C.3     1  ZINC000745364361    0.0900
     26 C26       -13.6969   -1.9585   59.6593 C.3     1  ZINC000745364361   -0.1300
     27 C27       -14.6924   -2.3617   58.5470 C.3     1  ZINC000745364361   -0.1500
     28 C28       -14.0411   -1.8707   57.2728 C.2     1  ZINC000745364361    0.5200
     29 O29       -14.6093   -1.7352   56.2098 O.2     1  ZINC000745364361   -0.5100
     30 C30       -11.8969    0.1934   56.1250 C.ar    1  ZINC000745364361   -0.1400
     31 C31       -11.0232    0.6617   55.1643 C.ar    1  ZINC000745364361   -0.0900
     32 H32        -5.6762    0.6629   51.5804 H       1  ZINC000745364361    0.0800
     33 H33        -5.7987   -0.1835   53.1415 H       1  ZINC000745364361    0.0800
     34 H34        -7.0446   -0.4311   51.8946 H       1  ZINC000745364361    0.0800
     35 H35        -4.7227    3.5031   55.1980 H       1  ZINC000745364361    0.0700
     36 H36        -4.1028    5.1686   55.0986 H       1  ZINC000745364361    0.0800
     37 H37        -5.8509    4.8603   54.9667 H       1  ZINC000745364361    0.0800
     38 H38        -2.3835    4.8968   54.4432 H       1  ZINC000745364361    0.1300
     39 H39        -0.1421    4.0318   53.9051 H       1  ZINC000745364361    0.1400
     40 H40         0.1538    2.4536   52.0392 H       1  ZINC000745364361    0.1400
     41 H41        -4.0397    2.6004   51.2542 H       1  ZINC000745364361    0.1400
     42 H42        -9.4067    0.1102   52.6616 H       1  ZINC000745364361    0.4100
     43 H43        -9.3503   -2.2065   54.5116 H       1  ZINC000745364361    0.1300
     44 H44       -10.9032   -3.0397   56.2285 H       1  ZINC000745364361    0.1600
     45 H45       -11.8384   -2.8415   58.9482 H       1  ZINC000745364361    0.0800
     46 H46       -11.7415   -1.0844   59.2693 H       1  ZINC000745364361    0.0900
     47 H47       -13.6539   -2.7191   60.4389 H       1  ZINC000745364361    0.1000
     48 H48       -13.9541   -0.9860   60.0792 H       1  ZINC000745364361    0.0900
     49 H49       -14.8193   -3.4440   58.5226 H       1  ZINC000745364361    0.1100
     50 H50       -15.6522   -1.8674   58.6965 H       1  ZINC000745364361    0.1100
     51 H51       -12.6114    0.8646   56.5783 H       1  ZINC000745364361    0.1300
     52 H52       -11.0559    1.6987   54.8642 H       1  ZINC000745364361    0.1400
@<TRIPOS>BOND
     1     1     2    1
     2     1    32    1
     3     1    33    1
     4     1    34    1
     5     2     3    1
     6     2     4    1
     7     2    17    1
     8     4     5    1
     9     5     6    2
    10     5     7    1
    11     7     8    1
    12     7     9    1
    13     7    10    1
    14     9    35    1
    15     9    36    1
    16     9    37    1
    17    10    16   ar
    18    10    11   ar
    19    11    12   ar
    20    11    38    1
    21    12    13   ar
    22    12    39    1
    23    13    14   ar
    24    13    40    1
    25    14    15    1
    26    14    16   ar
    27    16    41    1
    28    17    18    2
    29    17    19   am
    30    19    20    1
    31    19    42    1
    32    20    31   ar
    33    20    21   ar
    34    21    22   ar
    35    21    43    1
    36    22    23   ar
    37    22    44    1
    38    23    24    1
    39    23    30   ar
    40    24    28   am
    41    24    25    1
    42    25    26    1
    43    25    45    1
    44    25    46    1
    45    26    27    1
    46    26    47    1
    47    26    48    1
    48    27    28    1
    49    27    49    1
    50    27    50    1
    51    28    29    2
    52    30    31   ar
    53    30    51    1
    54    31    52    1
@<TRIPOS>SUBSTRUCTURE
     1 ZINC000745364361        1 TEMP              0 ****  ****    0 ROOT


##########                                Name:    ZINC000740930783
##########                DOCK_Rotatable_Bonds:                  11
##########                         Heavy_Atoms:                  27
##########                    Molecular_Weight:             413.257
##########                DOCK_Rotatable_Bonds:                  11
##########                       Formal_Charge:          -0.0100004
##########                     HBond_Acceptors:                   9
##########                        HBond_Donors:                   4
##########                         Heavy_Atoms:                  27
##########                          Grid_Score:          -29.116631
##########                     Grid_vdw_energy:          -29.560074
##########                      Grid_es_energy:            0.443444
##########           Internal_energy_repulsive:           13.800190

@<TRIPOS>MOLECULE
ZINC000740930783
 45 46 1 0 0
SMALL
USER_CHARGES


@<TRIPOS>ATOM
      1 C1         -6.3448   -0.3158   51.5727 C.3     1  ZINC000740930783    0.0200
      2 O2         -6.3742    1.1086   51.4625 O.3     1  ZINC000740930783   -0.3000
      3 C3         -6.3852    1.8177   52.6229 C.ar    1  ZINC000740930783    0.1200
      4 C4         -7.3626    1.5782   53.5692 C.ar    1  ZINC000740930783   -0.1400
      5 C5         -7.3712    2.3079   54.7610 C.ar    1  ZINC000740930783   -0.0800
      6 C6         -8.4134    2.0552   55.7754 C.2     1  ZINC000740930783    0.5600
      7 O7         -9.2232    2.9216   56.0438 O.2     1  ZINC000740930783   -0.5300
      8 N8         -8.4672    0.8643   56.4041 N.am    1  ZINC000740930783   -0.7200
      9 C9         -9.5005    0.6142   57.4121 C.3     1  ZINC000740930783    0.0900
     10 C10       -10.0962   -0.7786   57.1971 C.3     1  ZINC000740930783    0.1400
     11 H11       -10.9366   -0.9232   57.8759 H       1  ZINC000740930783    0.1200
     12 O12        -9.0987   -1.7685   57.4564 O.3     1  ZINC000740930783   -0.5500
     13 C13       -10.5729   -0.9068   55.7732 C.ar    1  ZINC000740930783   -0.1100
     14 C14        -9.7812   -1.5393   54.8336 C.ar    1  ZINC000740930783   -0.1000
     15 C15       -10.2184   -1.6570   53.5272 C.ar    1  ZINC000740930783   -0.1100
     16 C16       -11.4471   -1.1415   53.1601 C.ar    1  ZINC000740930783   -0.1000
     17 C17       -12.2400   -0.5084   54.0990 C.ar    1  ZINC000740930783   -0.1100
     18 C18       -11.8058   -0.3959   55.4076 C.ar    1  ZINC000740930783   -0.0300
     19 Cl19      -12.8008    0.3988   56.5874 Cl      1  ZINC000740930783   -0.0600
     20 C20        -6.3914    3.2765   54.9907 C.ar    1  ZINC000740930783   -0.1000
     21 C21        -5.4181    3.5110   54.0419 C.ar    1  ZINC000740930783   -0.0200
     22 Cl22       -4.2007    4.7148   54.3289 Cl      1  ZINC000740930783   -0.0300
     23 C23        -5.4069    2.7818   52.8598 C.ar    1  ZINC000740930783    0.0900
     24 O24        -4.4465    3.0160   51.9283 O.3     1  ZINC000740930783   -0.2900
     25 C25        -3.5811    1.9271   51.6008 C.3     1  ZINC000740930783    0.0400
     26 C26        -2.1463    2.3721   51.7204 C.2     1  ZINC000740930783    0.5200
     27 N27        -1.2359    1.9622   50.8150 N.am    1  ZINC000740930783   -0.8500
     28 O28        -1.8108    3.0990   52.6313 O.2     1  ZINC000740930783   -0.5100
     29 H29        -5.4468   -0.6202   52.1104 H       1  ZINC000740930783    0.0600
     30 H30        -7.2264   -0.6565   52.1157 H       1  ZINC000740930783    0.0600
     31 H31        -6.3388   -0.7573   50.5761 H       1  ZINC000740930783    0.1100
     32 H32        -8.1189    0.8288   53.3882 H       1  ZINC000740930783    0.1600
     33 H33        -7.8219    0.1728   56.1891 H       1  ZINC000740930783    0.4100
     34 H34        -9.0588    0.6707   58.4069 H       1  ZINC000740930783    0.0900
     35 H35       -10.2865    1.3637   57.3204 H       1  ZINC000740930783    0.0800
     36 H36        -8.8342   -1.8266   58.3847 H       1  ZINC000740930783    0.3800
     37 H37        -8.8207   -1.9416   55.1198 H       1  ZINC000740930783    0.1300
     38 H38        -9.5993   -2.1514   52.7932 H       1  ZINC000740930783    0.1300
     39 H39       -11.7878   -1.2329   52.1392 H       1  ZINC000740930783    0.1400
     40 H40       -13.2001   -0.1057   53.8119 H       1  ZINC000740930783    0.1400
     41 H41        -6.3961    3.8420   55.9108 H       1  ZINC000740930783    0.1500
     42 H42        -3.7631    1.0994   52.2863 H       1  ZINC000740930783    0.0900
     43 H43        -3.7768    1.6021   50.5789 H       1  ZINC000740930783    0.0900
     44 H44        -0.3126    2.2495   50.8912 H       1  ZINC000740930783    0.4000
     45 H45        -1.5041    1.3798   50.0871 H       1  ZINC000740930783    0.4100
@<TRIPOS>BOND
     1     1     2    1
     2     1    29    1
     3     1    30    1
     4     1    31    1
     5     2     3    1
     6     3    23   ar
     7     3     4   ar
     8     4     5   ar
     9     4    32    1
    10     5     6    1
    11     5    20   ar
    12     6     7    2
    13     6     8   am
    14     8     9    1
    15     8    33    1
    16     9    10    1
    17     9    34    1
    18     9    35    1
    19    10    11    1
    20    10    12    1
    21    10    13    1
    22    12    36    1
    23    13    18   ar
    24    13    14   ar
    25    14    15   ar
    26    14    37    1
    27    15    16   ar
    28    15    38    1
    29    16    17   ar
    30    16    39    1
    31    17    18   ar
    32    17    40    1
    33    18    19    1
    34    20    21   ar
    35    20    41    1
    36    21    22    1
    37    21    23   ar
    38    23    24    1
    39    24    25    1
    40    25    26    1
    41    25    42    1
    42    25    43    1
    43    26    27   am
    44    26    28    2
    45    27    44    1
    46    27    45    1
@<TRIPOS>SUBSTRUCTURE
     1 ZINC000740930783        1 TEMP              0 ****  ****    0 ROOT


##########                                Name:    ZINC000623695407
##########                DOCK_Rotatable_Bonds:                  10
##########                         Heavy_Atoms:                  27
##########                    Molecular_Weight:             368.479
##########                DOCK_Rotatable_Bonds:                  10
##########                       Formal_Charge:           0.0299989
##########                     HBond_Acceptors:                   6
##########                        HBond_Donors:                   2
##########                         Heavy_Atoms:                  27
##########                          Grid_Score:          -29.114246
##########                     Grid_vdw_energy:          -27.702137
##########                      Grid_es_energy:           -1.412109
##########           Internal_energy_repulsive:           10.041341

@<TRIPOS>MOLECULE
ZINC000623695407
 55 57 1 0 0
SMALL
USER_CHARGES


@<TRIPOS>ATOM
      1 C1        -14.5117   -0.3271   51.4422 C.3     1  ZINC000623695407    0.0300
      2 O2        -13.1203   -0.0186   51.3380 O.3     1  ZINC000623695407   -0.3200
      3 C3        -12.3425   -0.3053   52.4150 C.ar    1  ZINC000623695407    0.1300
      4 C4        -12.6001    0.2968   53.6380 C.ar    1  ZINC000623695407   -0.2100
      5 C5        -11.8083    0.0034   54.7314 C.ar    1  ZINC000623695407   -0.0600
      6 C6        -10.7596   -0.8892   54.6073 C.ar    1  ZINC000623695407   -0.1100
      7 C7         -9.8971   -1.2071   55.8016 C.3     1  ZINC000623695407    0.0600
      8 N8        -10.6440   -2.0662   56.7301 N.3     1  ZINC000623695407   -0.4600
      9 C9        -10.3571   -3.4908   56.4787 C.3     1  ZINC000623695407    0.0000
     10 C10       -10.3113   -3.6926   57.9998 C.3     1  ZINC000623695407   -0.1300
     11 C11        -9.9285   -2.2061   58.0122 C.3     1  ZINC000623695407    0.0100
     12 H12        -8.8553   -2.0333   57.9317 H       1  ZINC000623695407    0.0900
     13 C13       -10.5698   -1.4211   59.1582 C.3     1  ZINC000623695407    0.1600
     14 N14       -10.1952   -0.0088   59.0525 N.am    1  ZINC000623695407   -0.7400
     15 C15        -9.0331    0.4216   59.5822 C.2     1  ZINC000623695407    0.7100
     16 O16        -8.2962   -0.3619   60.1491 O.2     1  ZINC000623695407   -0.5900
     17 N17        -8.6877    1.7207   59.4835 N.am    1  ZINC000623695407   -0.7400
     18 C18        -7.4253    2.1888   60.0608 C.3     1  ZINC000623695407    0.1700
     19 H19        -6.7873    1.3331   60.2818 H       1  ZINC000623695407    0.0900
     20 C20        -6.7180    3.1082   59.0630 C.3     1  ZINC000623695407   -0.1600
     21 C21        -7.7097    2.9597   61.3515 C.3     1  ZINC000623695407   -0.0900
     22 C22        -7.7885    1.9944   62.5061 C.ar    1  ZINC000623695407   -0.0300
     23 C23        -8.9946    1.4109   62.8624 C.ar    1  ZINC000623695407   -0.1700
     24 C24        -9.0283    0.5303   63.9270 C.ar    1  ZINC000623695407    0.1000
     25 N25        -7.9313    0.2442   64.6006 N.ar    1  ZINC000623695407   -0.4900
     26 C26        -6.7672    0.7801   64.2901 C.ar    1  ZINC000623695407    0.1000
     27 C27        -6.6553    1.6644   63.2339 C.ar    1  ZINC000623695407   -0.1700
     28 C28       -10.5012   -1.4908   53.3896 C.ar    1  ZINC000623695407   -0.0700
     29 C29       -11.2932   -1.2048   52.2945 C.ar    1  ZINC000623695407   -0.1500
     30 H30       -15.0158   -0.0493   50.5165 H       1  ZINC000623695407    0.1000
     31 H31       -14.6349   -1.3961   51.6161 H       1  ZINC000623695407    0.0600
     32 H32       -14.9459    0.2287   52.2733 H       1  ZINC000623695407    0.0600
     33 H33       -13.4187    0.9945   53.7352 H       1  ZINC000623695407    0.1300
     34 H34       -12.0084    0.4718   55.6837 H       1  ZINC000623695407    0.1200
     35 H35        -8.9966   -1.7250   55.4718 H       1  ZINC000623695407    0.0600
     36 H36        -9.6199   -0.2816   56.3062 H       1  ZINC000623695407    0.0700
     37 H37       -11.1780   -4.0203   55.9950 H       1  ZINC000623695407    0.0900
     38 H38        -9.3983   -3.6609   55.9889 H       1  ZINC000623695407    0.0700
     39 H39       -11.2800   -3.9080   58.4508 H       1  ZINC000623695407    0.1000
     40 H40        -9.5188   -4.3605   58.3377 H       1  ZINC000623695407    0.0800
     41 H41       -11.6543   -1.5147   59.1005 H       1  ZINC000623695407    0.0700
     42 H42       -10.2210   -1.8193   60.1111 H       1  ZINC000623695407    0.0700
     43 H43       -10.7836    0.6165   58.6012 H       1  ZINC000623695407    0.3900
     44 H44        -9.2750    2.3455   59.0301 H       1  ZINC000623695407    0.3900
     45 H45        -5.7788    3.4565   59.4928 H       1  ZINC000623695407    0.0700
     46 H46        -6.5154    2.5590   58.1436 H       1  ZINC000623695407    0.0700
     47 H47        -7.3560    3.9638   58.8421 H       1  ZINC000623695407    0.0600
     48 H48        -6.9081    3.6762   61.5310 H       1  ZINC000623695407    0.1000
     49 H49        -8.6569    3.4905   61.2565 H       1  ZINC000623695407    0.0800
     50 H50        -9.8966    1.6418   62.3150 H       1  ZINC000623695407    0.1300
     51 H51        -9.9639    0.0714   64.2109 H       1  ZINC000623695407    0.1500
     52 H52        -5.8903    0.5219   64.8652 H       1  ZINC000623695407    0.1600
     53 H53        -5.6991    2.0999   62.9841 H       1  ZINC000623695407    0.1400
     54 H54        -9.6816   -2.1879   53.2954 H       1  ZINC000623695407    0.1200
     55 H55       -11.0910   -1.6750   51.3435 H       1  ZINC000623695407    0.1300
@<TRIPOS>BOND
     1     1     2    1
     2     1    30    1
     3     1    31    1
     4     1    32    1
     5     2     3    1
     6     3    29   ar
     7     3     4   ar
     8     4     5   ar
     9     4    33    1
    10     5     6   ar
    11     5    34    1
    12     6     7    1
    13     6    28   ar
    14     7     8    1
    15     7    35    1
    16     7    36    1
    17     8    11    1
    18     8     9    1
    19     9    10    1
    20     9    37    1
    21     9    38    1
    22    10    11    1
    23    10    39    1
    24    10    40    1
    25    11    12    1
    26    11    13    1
    27    13    14    1
    28    13    41    1
    29    13    42    1
    30    14    15   am
    31    14    43    1
    32    15    16    2
    33    15    17   am
    34    17    18    1
    35    17    44    1
    36    18    19    1
    37    18    20    1
    38    18    21    1
    39    20    45    1
    40    20    46    1
    41    20    47    1
    42    21    22    1
    43    21    48    1
    44    21    49    1
    45    22    27   ar
    46    22    23   ar
    47    23    24   ar
    48    23    50    1
    49    24    25   ar
    50    24    51    1
    51    25    26   ar
    52    26    27   ar
    53    26    52    1
    54    27    53    1
    55    28    29   ar
    56    28    54    1
    57    29    55    1
@<TRIPOS>SUBSTRUCTURE
     1 ZINC000623695407        1 TEMP              0 ****  ****    0 ROOT


##########                                Name:    ZINC000762187039
##########                DOCK_Rotatable_Bonds:                   9
##########                         Heavy_Atoms:                  25
##########                    Molecular_Weight:             354.473
##########                DOCK_Rotatable_Bonds:                   9
##########                       Formal_Charge:        -1.78814e-07
##########                     HBond_Acceptors:                   5
##########                        HBond_Donors:                   1
##########                         Heavy_Atoms:                  25
##########                          Grid_Score:          -29.061184
##########                     Grid_vdw_energy:          -29.950678
##########                      Grid_es_energy:            0.889493
##########           Internal_energy_repulsive:            6.467369

@<TRIPOS>MOLECULE
ZINC000762187039
 47 49 1 0 0
SMALL
USER_CHARGES


@<TRIPOS>ATOM
      1 C1         -1.7520    1.2322   49.5781 C.3     1  ZINC000762187039   -0.0800
      2 C2         -2.6686    1.8016   50.6302 C.2     1  ZINC000762187039    0.0500
      3 N3         -3.9333    1.5608   50.7165 N.2     1  ZINC000762187039   -0.4700
      4 C4         -4.5896    2.1412   51.7009 C.2     1  ZINC000762187039    0.0700
      5 C5         -6.0679    1.9482   51.9205 C.3     1  ZINC000762187039   -0.0300
      6 C6         -6.3057    0.6314   52.6622 C.3     1  ZINC000762187039   -0.1300
      7 C7         -7.7330    0.5761   53.1427 C.2     1  ZINC000762187039    0.5200
      8 O8         -8.2844    1.5873   53.5226 O.2     1  ZINC000762187039   -0.5400
      9 N9         -8.3965   -0.5969   53.1503 N.am    1  ZINC000762187039   -0.7300
     10 C10        -9.7834   -0.6509   53.6190 C.3     1  ZINC000762187039    0.1200
     11 C11        -9.8019   -0.8564   55.1351 C.3     1  ZINC000762187039   -0.1300
     12 C12        -9.6764   -2.3486   55.4491 C.3     1  ZINC000762187039    0.0600
     13 O13        -9.4051   -2.5211   56.8415 O.3     1  ZINC000762187039   -0.3100
     14 C14       -10.3487   -2.0786   57.7133 C.ar    1  ZINC000762187039    0.1300
     15 C15       -10.0521   -1.0140   58.5695 C.ar    1  ZINC000762187039   -0.1900
     16 C16       -10.9757   -0.5487   59.4529 C.ar    1  ZINC000762187039   -0.0600
     17 C17       -12.2480   -1.1435   59.5090 C.ar    1  ZINC000762187039   -0.0800
     18 C18       -13.2262   -0.6877   60.4092 C.ar    1  ZINC000762187039   -0.0900
     19 C19       -14.4480   -1.2865   60.4364 C.ar    1  ZINC000762187039   -0.1300
     20 C20       -14.7464   -2.3478   59.5836 C.ar    1  ZINC000762187039   -0.1000
     21 C21       -13.8246   -2.8163   58.6989 C.ar    1  ZINC000762187039   -0.1200
     22 C22       -12.5514   -2.2229   58.6415 C.ar    1  ZINC000762187039   -0.0100
     23 C23       -11.5769   -2.6762   57.7378 C.ar    1  ZINC000762187039   -0.1500
     24 C24        -3.8365    2.9146   52.4889 C.2     1  ZINC000762187039   -0.2600
     25 S25        -2.1818    2.8541   51.8865 S.3     1  ZINC000762187039    0.1200
     26 H26        -0.7380    1.5959   49.7443 H       1  ZINC000762187039    0.0800
     27 H27        -1.7620    0.1439   49.6378 H       1  ZINC000762187039    0.0900
     28 H28        -2.0930    1.5452   48.5912 H       1  ZINC000762187039    0.0900
     29 H29        -6.4582    2.7751   52.5139 H       1  ZINC000762187039    0.0900
     30 H30        -6.5776    1.9199   50.9573 H       1  ZINC000762187039    0.0900
     31 H31        -6.1165   -0.2044   51.9885 H       1  ZINC000762187039    0.0900
     32 H32        -5.6320    0.5690   53.5167 H       1  ZINC000762187039    0.1000
     33 H33        -7.9558   -1.4054   52.8453 H       1  ZINC000762187039    0.4000
     34 H34       -10.2867    0.2842   53.3730 H       1  ZINC000762187039    0.0700
     35 H35       -10.2990   -1.4796   53.1338 H       1  ZINC000762187039    0.0700
     36 H36        -8.9668   -0.3190   55.5846 H       1  ZINC000762187039    0.0800
     37 H37       -10.7393   -0.4771   55.5418 H       1  ZINC000762187039    0.0800
     38 H38       -10.6088   -2.8528   55.1954 H       1  ZINC000762187039    0.0700
     39 H39        -8.8616   -2.7756   54.8645 H       1  ZINC000762187039    0.0700
     40 H40        -9.0754   -0.5546   58.5291 H       1  ZINC000762187039    0.1300
     41 H41       -10.7324    0.2741   60.1088 H       1  ZINC000762187039    0.1300
     42 H42       -13.0094    0.1336   61.0762 H       1  ZINC000762187039    0.1300
     43 H43       -15.1976   -0.9342   61.1295 H       1  ZINC000762187039    0.1200
     44 H44       -15.7237   -2.8056   59.6259 H       1  ZINC000762187039    0.1200
     45 H45       -14.0699   -3.6394   58.0442 H       1  ZINC000762187039    0.1300
     46 H46       -11.7959   -3.4950   57.0685 H       1  ZINC000762187039    0.1300
     47 H47        -4.1807    3.4746   53.3457 H       1  ZINC000762187039    0.1800
@<TRIPOS>BOND
     1     1     2    1
     2     1    26    1
     3     1    27    1
     4     1    28    1
     5     2    25    1
     6     2     3    2
     7     3     4    1
     8     4     5    1
     9     4    24    2
    10     5     6    1
    11     5    29    1
    12     5    30    1
    13     6     7    1
    14     6    31    1
    15     6    32    1
    16     7     8    2
    17     7     9   am
    18     9    10    1
    19     9    33    1
    20    10    11    1
    21    10    34    1
    22    10    35    1
    23    11    12    1
    24    11    36    1
    25    11    37    1
    26    12    13    1
    27    12    38    1
    28    12    39    1
    29    13    14    1
    30    14    23   ar
    31    14    15   ar
    32    15    16   ar
    33    15    40    1
    34    16    17   ar
    35    16    41    1
    36    17    22   ar
    37    17    18   ar
    38    18    19   ar
    39    18    42    1
    40    19    20   ar
    41    19    43    1
    42    20    21   ar
    43    20    44    1
    44    21    22   ar
    45    21    45    1
    46    22    23   ar
    47    23    46    1
    48    24    25    1
    49    24    47    1
@<TRIPOS>SUBSTRUCTURE
     1 ZINC000762187039        1 TEMP              0 ****  ****    0 ROOT


##########                                Name:    ZINC000507831344
##########                DOCK_Rotatable_Bonds:                   6
##########                         Heavy_Atoms:                  31
##########                    Molecular_Weight:              422.53
##########                DOCK_Rotatable_Bonds:                   6
##########                       Formal_Charge:          -0.0200002
##########                     HBond_Acceptors:                   8
##########                        HBond_Donors:                   2
##########                         Heavy_Atoms:                  31
##########                          Grid_Score:          -29.053940
##########                     Grid_vdw_energy:          -28.597219
##########                      Grid_es_energy:           -0.456720
##########           Internal_energy_repulsive:          142.190735

@<TRIPOS>MOLECULE
ZINC000507831344
 61 64 1 0 0
SMALL
USER_CHARGES


@<TRIPOS>ATOM
      1 C1         -9.3945   -0.0872   60.4875 C.3     1  ZINC000507831344   -0.1000
      2 C2         -8.8533    0.5481   59.2326 C.ar    1  ZINC000507831344   -0.0800
      3 C3         -7.7787    1.4158   59.2948 C.ar    1  ZINC000507831344   -0.0800
      4 C4         -7.3111    1.9798   58.1087 C.ar    1  ZINC000507831344    0.0900
      5 N5         -6.2238    2.8645   58.1241 N.am    1  ZINC000507831344   -0.6700
      6 C6         -5.2897    2.8012   57.1547 C.2     1  ZINC000507831344    0.5100
      7 O7         -5.3898    1.9787   56.2688 O.2     1  ZINC000507831344   -0.5100
      8 C8         -4.1208    3.7522   57.1713 C.3     1  ZINC000507831344   -0.1400
      9 C9         -4.2965    4.7956   56.0662 C.3     1  ZINC000507831344   -0.0500
     10 C10        -4.0014    4.1658   54.7292 C.2     1  ZINC000507831344   -0.2200
     11 C11        -2.7224    3.8679   54.3788 C.2     1  ZINC000507831344    0.2100
     12 C12        -1.5848    4.1635   55.3219 C.3     1  ZINC000507831344   -0.1400
     13 N13        -2.4818    3.2996   53.1672 N.pl3   1  ZINC000507831344   -0.3000
     14 N14        -1.2990    2.8892   52.5405 N.am    1  ZINC000507831344   -0.5100
     15 C15        -1.6101    2.3834   51.3316 C.2     1  ZINC000507831344    0.5500
     16 O16        -0.8175    1.9335   50.5201 O.2     1  ZINC000507831344   -0.5400
     17 C17        -2.9920    2.4614   51.1654 C.2     1  ZINC000507831344   -0.3500
     18 C18        -3.5261    3.0348   52.3173 C.2     1  ZINC000507831344    0.3500
     19 N19        -4.7820    3.3314   52.6713 N.2     1  ZINC000507831344   -0.4800
     20 C20        -5.0422    3.8771   53.8398 C.2     1  ZINC000507831344    0.2500
     21 C21        -6.4646    4.2019   54.2171 C.3     1  ZINC000507831344   -0.1200
     22 C22        -7.9342    1.6548   56.9137 C.ar    1  ZINC000507831344    0.0800
     23 N23        -8.9580    0.8225   56.8911 N.ar    1  ZINC000507831344   -0.4900
     24 C24        -9.4250    0.2644   57.9965 C.ar    1  ZINC000507831344    0.2800
     25 N25       -10.5073   -0.6082   57.9228 N.3     1  ZINC000507831344   -0.4800
     26 C26       -10.2269   -1.8564   58.6438 C.3     1  ZINC000507831344    0.0600
     27 C27       -11.3738   -2.8447   58.4204 C.3     1  ZINC000507831344   -0.1200
     28 C28       -12.6803   -2.2250   58.9240 C.3     1  ZINC000507831344   -0.1200
     29 C29       -12.9242   -0.9024   58.1920 C.3     1  ZINC000507831344   -0.1100
     30 C30       -11.7323    0.0295   58.4219 C.3     1  ZINC000507831344    0.0900
     31 H31       -11.6288    0.2303   59.4883 H       1  ZINC000507831344    0.0600
     32 C32       -11.9625    1.3451   57.6755 C.3     1  ZINC000507831344   -0.1400
     33 H33        -8.9404   -1.0689   60.6226 H       1  ZINC000507831344    0.0700
     34 H34        -9.1587    0.5433   61.3447 H       1  ZINC000507831344    0.0600
     35 H35       -10.4758   -0.1956   60.4026 H       1  ZINC000507831344    0.0800
     36 H36        -7.3128    1.6515   60.2401 H       1  ZINC000507831344    0.1500
     37 H37        -6.1436    3.5222   58.8327 H       1  ZINC000507831344    0.4100
     38 H38        -4.0729    4.2521   58.1387 H       1  ZINC000507831344    0.1000
     39 H39        -3.1981    3.1968   57.0032 H       1  ZINC000507831344    0.1000
     40 H40        -5.3219    5.1653   56.0751 H       1  ZINC000507831344    0.0900
     41 H41        -3.6098    5.6248   56.2368 H       1  ZINC000507831344    0.1000
     42 H42        -1.4137    3.3012   55.9663 H       1  ZINC000507831344    0.1000
     43 H43        -0.6821    4.3730   54.7479 H       1  ZINC000507831344    0.0800
     44 H44        -1.8357    5.0301   55.9336 H       1  ZINC000507831344    0.1100
     45 H45        -0.4063    2.9580   52.9135 H       1  ZINC000507831344    0.4400
     46 H46        -3.5486    2.1360   50.2990 H       1  ZINC000507831344    0.1700
     47 H47        -7.1308    3.9159   53.4030 H       1  ZINC000507831344    0.0900
     48 H48        -6.7359    3.6527   55.1186 H       1  ZINC000507831344    0.1000
     49 H49        -6.5560    5.2722   54.4023 H       1  ZINC000507831344    0.0900
     50 H50        -7.5778    2.0879   55.9909 H       1  ZINC000507831344    0.1600
     51 H51        -9.2975   -2.2889   58.2732 H       1  ZINC000507831344    0.0700
     52 H52       -10.1303   -1.6468   59.7090 H       1  ZINC000507831344    0.0500
     53 H53       -11.4621   -3.0655   57.3566 H       1  ZINC000507831344    0.0700
     54 H54       -11.1728   -3.7654   58.9683 H       1  ZINC000507831344    0.0700
     55 H55       -13.5068   -2.9079   58.7275 H       1  ZINC000507831344    0.0700
     56 H56       -12.6064   -2.0400   59.9956 H       1  ZINC000507831344    0.0600
     57 H57       -13.0369   -1.0926   57.1247 H       1  ZINC000507831344    0.0700
     58 H58       -13.8309   -0.4354   58.5766 H       1  ZINC000507831344    0.0700
     59 H59       -12.8210    1.8612   58.1050 H       1  ZINC000507831344    0.0600
     60 H60       -11.0772    1.9744   57.7669 H       1  ZINC000507831344    0.0500
     61 H61       -12.1530    1.1369   56.6226 H       1  ZINC000507831344    0.0600
@<TRIPOS>BOND
     1     1     2    1
     2     1    33    1
     3     1    34    1
     4     1    35    1
     5     2    24   ar
     6     2     3   ar
     7     3     4   ar
     8     3    36    1
     9     4     5    1
    10     4    22   ar
    11     5     6   am
    12     5    37    1
    13     6     7    2
    14     6     8    1
    15     8     9    1
    16     8    38    1
    17     8    39    1
    18     9    10    1
    19     9    40    1
    20     9    41    1
    21    10    20    1
    22    10    11    2
    23    11    12    1
    24    11    13    1
    25    12    42    1
    26    12    43    1
    27    12    44    1
    28    13    18    1
    29    13    14    1
    30    14    15   am
    31    14    45    1
    32    15    16    2
    33    15    17    1
    34    17    18    2
    35    17    46    1
    36    18    19    1
    37    19    20    2
    38    20    21    1
    39    21    47    1
    40    21    48    1
    41    21    49    1
    42    22    23   ar
    43    22    50    1
    44    23    24   ar
    45    24    25    1
    46    25    30    1
    47    25    26    1
    48    26    27    1
    49    26    51    1
    50    26    52    1
    51    27    28    1
    52    27    53    1
    53    27    54    1
    54    28    29    1
    55    28    55    1
    56    28    56    1
    57    29    30    1
    58    29    57    1
    59    29    58    1
    60    30    31    1
    61    30    32    1
    62    32    59    1
    63    32    60    1
    64    32    61    1
@<TRIPOS>SUBSTRUCTURE
     1 ZINC000507831344        1 TEMP              0 ****  ****    0 ROOT


##########                                Name:    ZINC000463741321
##########                DOCK_Rotatable_Bonds:                   7
##########                         Heavy_Atoms:                  26
##########                    Molecular_Weight:             354.467
##########                DOCK_Rotatable_Bonds:                   7
##########                       Formal_Charge:         -6.4075e-07
##########                     HBond_Acceptors:                   4
##########                        HBond_Donors:                   1
##########                         Heavy_Atoms:                  26
##########                          Grid_Score:          -29.053646
##########                     Grid_vdw_energy:          -29.637918
##########                      Grid_es_energy:            0.584273
##########           Internal_energy_repulsive:           17.076370

@<TRIPOS>MOLECULE
ZINC000463741321
 53 55 1 0 0
SMALL
USER_CHARGES


@<TRIPOS>ATOM
      1 C1        -10.8711    0.2576   57.2382 C.3     1  ZINC000463741321   -0.1500
      2 C2         -9.7498   -0.6021   56.6511 C.3     1  ZINC000463741321   -0.1100
      3 H3         -8.8746   -0.5494   57.2986 H       1  ZINC000463741321    0.1000
      4 C4        -10.2211   -2.0540   56.5478 C.3     1  ZINC000463741321   -0.0900
      5 C5        -10.3685   -2.6435   57.9520 C.3     1  ZINC000463741321   -0.0800
      6 C6        -11.8296   -2.7247   58.3118 C.ar    1  ZINC000463741321   -0.1200
      7 C7        -12.7162   -3.3594   57.4630 C.ar    1  ZINC000463741321   -0.0900
      8 C8        -14.0569   -3.4340   57.7929 C.ar    1  ZINC000463741321   -0.1300
      9 C9        -14.5119   -2.8737   58.9717 C.ar    1  ZINC000463741321   -0.1000
     10 C10       -13.6270   -2.2380   59.8221 C.ar    1  ZINC000463741321   -0.1500
     11 C11       -12.2833   -2.1684   59.4960 C.ar    1  ZINC000463741321    0.1000
     12 F12       -11.4175   -1.5472   60.3265 F       1  ZINC000463741321   -0.1400
     13 C13        -9.3911   -0.0915   55.2794 C.2     1  ZINC000463741321    0.5200
     14 O14        -9.2799   -0.8671   54.3535 O.2     1  ZINC000463741321   -0.5300
     15 N15        -9.1939    1.2269   55.0813 N.am    1  ZINC000463741321   -0.7300
     16 C16        -8.8435    1.7230   53.7480 C.3     1  ZINC000463741321    0.1500
     17 H17        -9.1526    0.9965   52.9966 H       1  ZINC000463741321    0.1000
     18 C18        -9.5554    3.0548   53.4947 C.3     1  ZINC000463741321   -0.1300
     19 C19        -9.1370    3.5956   52.1247 C.3     1  ZINC000463741321   -0.1200
     20 C20        -7.6152    3.7531   52.0869 C.3     1  ZINC000463741321    0.0600
     21 N21        -6.9809    2.4519   52.3339 N.3     1  ZINC000463741321   -0.4800
     22 C22        -5.5954    2.5325   52.1765 C.ar    1  ZINC000463741321    0.1100
     23 C23        -4.8780    3.5302   52.8245 C.ar    1  ZINC000463741321   -0.1700
     24 C24        -3.5082    3.6067   52.6670 C.ar    1  ZINC000463741321   -0.0900
     25 C25        -2.8506    2.6921   51.8650 C.ar    1  ZINC000463741321   -0.1500
     26 C26        -3.5616    1.6977   51.2185 C.ar    1  ZINC000463741321   -0.0900
     27 C27        -4.9310    1.6119   51.3761 C.ar    1  ZINC000463741321   -0.1400
     28 C28        -7.3301    1.9338   53.6629 C.3     1  ZINC000463741321    0.0500
     29 H29       -11.7463    0.2050   56.5906 H       1  ZINC000463741321    0.0600
     30 H30       -11.1304   -0.1116   58.2304 H       1  ZINC000463741321    0.0700
     31 H31       -10.5353    1.2920   57.3118 H       1  ZINC000463741321    0.0600
     32 H32       -11.1832   -2.0882   56.0366 H       1  ZINC000463741321    0.0700
     33 H33        -9.4898   -2.6342   55.9850 H       1  ZINC000463741321    0.0700
     34 H34        -9.9328   -3.6424   57.9742 H       1  ZINC000463741321    0.0800
     35 H35        -9.8524   -2.0060   58.6697 H       1  ZINC000463741321    0.0800
     36 H36       -12.3620   -3.7968   56.5414 H       1  ZINC000463741321    0.1300
     37 H37       -14.7491   -3.9302   57.1288 H       1  ZINC000463741321    0.1300
     38 H38       -15.5595   -2.9323   59.2282 H       1  ZINC000463741321    0.1300
     39 H39       -13.9829   -1.7996   60.7428 H       1  ZINC000463741321    0.1400
     40 H40        -9.2841    1.8473   55.8214 H       1  ZINC000463741321    0.4000
     41 H41       -10.6342    2.9001   53.5114 H       1  ZINC000463741321    0.0700
     42 H42        -9.2769    3.7697   54.2690 H       1  ZINC000463741321    0.0600
     43 H43        -9.4502    2.8987   51.3473 H       1  ZINC000463741321    0.0800
     44 H44        -9.6074    4.5645   51.9568 H       1  ZINC000463741321    0.0800
     45 H45        -7.3128    4.1245   51.1078 H       1  ZINC000463741321    0.0900
     46 H46        -7.3040    4.4606   52.8555 H       1  ZINC000463741321    0.0500
     47 H47        -5.3911    4.2452   53.4504 H       1  ZINC000463741321    0.1200
     48 H48        -2.9499    4.3820   53.1705 H       1  ZINC000463741321    0.1200
     49 H49        -1.7794    2.7547   51.7430 H       1  ZINC000463741321    0.1200
     50 H50        -3.0450    0.9849   50.5927 H       1  ZINC000463741321    0.1200
     51 H51        -5.4857    0.8349   50.8711 H       1  ZINC000463741321    0.1300
     52 H52        -7.0206    2.6495   54.4245 H       1  ZINC000463741321    0.0500
     53 H53        -6.8204    0.9846   53.8281 H       1  ZINC000463741321    0.0900
@<TRIPOS>BOND
     1     1     2    1
     2     1    29    1
     3     1    30    1
     4     1    31    1
     5     2     3    1
     6     2     4    1
     7     2    13    1
     8     4     5    1
     9     4    32    1
    10     4    33    1
    11     5     6    1
    12     5    34    1
    13     5    35    1
    14     6    11   ar
    15     6     7   ar
    16     7     8   ar
    17     7    36    1
    18     8     9   ar
    19     8    37    1
    20     9    10   ar
    21     9    38    1
    22    10    11   ar
    23    10    39    1
    24    11    12    1
    25    13    14    2
    26    13    15   am
    27    15    16    1
    28    15    40    1
    29    16    17    1
    30    16    28    1
    31    16    18    1
    32    18    19    1
    33    18    41    1
    34    18    42    1
    35    19    20    1
    36    19    43    1
    37    19    44    1
    38    20    21    1
    39    20    45    1
    40    20    46    1
    41    21    22    1
    42    21    28    1
    43    22    27   ar
    44    22    23   ar
    45    23    24   ar
    46    23    47    1
    47    24    25   ar
    48    24    48    1
    49    25    26   ar
    50    25    49    1
    51    26    27   ar
    52    26    50    1
    53    27    51    1
    54    28    52    1
    55    28    53    1
@<TRIPOS>SUBSTRUCTURE
     1 ZINC000463741321        1 TEMP              0 ****  ****    0 ROOT


##########                                Name:    ZINC000750807956
##########                DOCK_Rotatable_Bonds:                  11
##########                         Heavy_Atoms:                  26
##########                    Molecular_Weight:             368.473
##########                DOCK_Rotatable_Bonds:                  11
##########                       Formal_Charge:        -8.12113e-07
##########                     HBond_Acceptors:                   7
##########                        HBond_Donors:                   1
##########                         Heavy_Atoms:                  26
##########                          Grid_Score:          -29.031593
##########                     Grid_vdw_energy:          -27.875547
##########                      Grid_es_energy:           -1.156045
##########           Internal_energy_repulsive:           94.183090

@<TRIPOS>MOLECULE
ZINC000750807956
 58 59 1 0 0
SMALL
USER_CHARGES


@<TRIPOS>ATOM
      1 C1        -12.9128    1.5132   61.2503 C.3     1  ZINC000750807956   -0.1500
      2 C2        -12.8490    1.2451   62.7553 C.3     1  ZINC000750807956    0.0700
      3 O3        -11.5197    0.7797   63.1082 O.3     1  ZINC000750807956   -0.3600
      4 C4        -10.6271    1.7104   63.4809 C.2     1  ZINC000750807956    0.4800
      5 O5        -10.7891    2.8645   63.1622 O.2     1  ZINC000750807956   -0.4900
      6 C6         -9.4231    1.3158   64.2968 C.3     1  ZINC000750807956    0.1600
      7 H7         -9.6444    0.4089   64.8596 H       1  ZINC000750807956    0.1000
      8 C8         -9.0662    2.4472   65.2658 C.3     1  ZINC000750807956   -0.1300
      9 C9         -7.7642    2.1003   65.9914 C.3     1  ZINC000750807956   -0.1200
     10 C10        -6.6312    1.9620   64.9720 C.3     1  ZINC000750807956   -0.1400
     11 C11        -6.9606    0.8250   63.9996 C.3     1  ZINC000750807956    0.1100
     12 N12        -8.2809    1.0753   63.4045 N.am    1  ZINC000750807956   -0.6100
     13 C13        -8.4394    1.0892   62.0663 C.2     1  ZINC000750807956    0.5100
     14 O14        -9.5342    1.2969   61.5874 O.2     1  ZINC000750807956   -0.5000
     15 C15        -7.2564    0.8465   61.1647 C.3     1  ZINC000750807956   -0.1400
     16 C16        -7.7326    0.7476   59.7140 C.3     1  ZINC000750807956    0.2100
     17 H17        -8.5803    1.4160   59.5636 H       1  ZINC000750807956    0.1000
     18 N18        -8.1398   -0.6299   59.4266 N.am    1  ZINC000750807956   -0.7000
     19 C19        -8.9994   -0.8824   58.4197 C.2     1  ZINC000750807956    0.6600
     20 O20        -9.4355    0.0325   57.7494 O.2     1  ZINC000750807956   -0.5600
     21 O21        -9.3749   -2.1482   58.1566 O.3     1  ZINC000750807956   -0.3700
     22 C22       -10.3409   -2.3411   57.0898 C.3     1  ZINC000750807956    0.1400
     23 C23       -10.6640   -3.8307   56.9574 C.3     1  ZINC000750807956   -0.1800
     24 C24       -11.6209   -1.5686   57.4150 C.3     1  ZINC000750807956   -0.1400
     25 C25        -9.7557   -1.8271   55.7729 C.3     1  ZINC000750807956   -0.1800
     26 C26        -6.5934    1.1492   58.7749 C.3     1  ZINC000750807956   -0.1800
     27 C27        -6.9369    2.0670   57.5999 C.3     1  ZINC000750807956   -0.1700
     28 C28        -6.1470    2.6125   58.7914 C.3     1  ZINC000750807956   -0.1800
     29 H29       -12.6939    0.5934   60.7078 H       1  ZINC000750807956    0.0600
     30 H30       -13.9107    1.8626   60.9854 H       1  ZINC000750807956    0.0800
     31 H31       -12.1791    2.2746   60.9855 H       1  ZINC000750807956    0.0700
     32 H32       -13.0679    2.1649   63.2977 H       1  ZINC000750807956    0.0700
     33 H33       -13.5827    0.4838   63.0201 H       1  ZINC000750807956    0.0600
     34 H34        -8.9363    3.3754   64.7093 H       1  ZINC000750807956    0.0800
     35 H35        -9.8676    2.5686   65.9945 H       1  ZINC000750807956    0.0800
     36 H36        -7.5209    2.8925   66.6995 H       1  ZINC000750807956    0.0800
     37 H37        -7.8870    1.1593   66.5277 H       1  ZINC000750807956    0.0700
     38 H38        -6.5242    2.8948   64.4182 H       1  ZINC000750807956    0.0700
     39 H39        -5.6996    1.7380   65.4914 H       1  ZINC000750807956    0.0800
     40 H40        -6.2066    0.7866   63.2134 H       1  ZINC000750807956    0.0900
     41 H41        -6.9786   -0.1226   64.5380 H       1  ZINC000750807956    0.0800
     42 H42        -6.5514    1.6722   61.2603 H       1  ZINC000750807956    0.1200
     43 H43        -6.7667   -0.0844   61.4507 H       1  ZINC000750807956    0.1100
     44 H44        -7.7907   -1.3605   59.9609 H       1  ZINC000750807956    0.4000
     45 H45       -11.0808   -4.1969   57.8955 H       1  ZINC000750807956    0.0600
     46 H46       -11.3890   -3.9754   56.1565 H       1  ZINC000750807956    0.0700
     47 H47        -9.7520   -4.3810   56.7256 H       1  ZINC000750807956    0.0900
     48 H48       -11.3908   -0.5073   57.5093 H       1  ZINC000750807956    0.0700
     49 H49       -12.3460   -1.7133   56.6142 H       1  ZINC000750807956    0.0800
     50 H50       -12.0378   -1.9348   58.3532 H       1  ZINC000750807956    0.0700
     51 H51        -8.8437   -2.3774   55.5411 H       1  ZINC000750807956    0.0900
     52 H52       -10.4808   -1.9719   54.9720 H       1  ZINC000750807956    0.0700
     53 H53        -9.5255   -0.7659   55.8671 H       1  ZINC000750807956    0.0600
     54 H54        -5.8270    0.3909   58.6144 H       1  ZINC000750807956    0.1100
     55 H55        -6.3965    1.9127   56.6660 H       1  ZINC000750807956    0.0900
     56 H56        -7.9744    2.3847   57.4960 H       1  ZINC000750807956    0.0900
     57 H57        -6.6649    3.2891   59.4712 H       1  ZINC000750807956    0.1200
     58 H58        -5.0869    2.8170   58.6412 H       1  ZINC000750807956    0.0900
@<TRIPOS>BOND
     1     1     2    1
     2     1    29    1
     3     1    30    1
     4     1    31    1
     5     2     3    1
     6     2    32    1
     7     2    33    1
     8     3     4    1
     9     4     5    2
    10     4     6    1
    11     6     7    1
    12     6    12    1
    13     6     8    1
    14     8     9    1
    15     8    34    1
    16     8    35    1
    17     9    10    1
    18     9    36    1
    19     9    37    1
    20    10    11    1
    21    10    38    1
    22    10    39    1
    23    11    12    1
    24    11    40    1
    25    11    41    1
    26    12    13   am
    27    13    14    2
    28    13    15    1
    29    15    16    1
    30    15    42    1
    31    15    43    1
    32    16    17    1
    33    16    18    1
    34    16    26    1
    35    18    19   am
    36    18    44    1
    37    19    20    2
    38    19    21    1
    39    21    22    1
    40    22    23    1
    41    22    24    1
    42    22    25    1
    43    23    45    1
    44    23    46    1
    45    23    47    1
    46    24    48    1
    47    24    49    1
    48    24    50    1
    49    25    51    1
    50    25    52    1
    51    25    53    1
    52    26    28    1
    53    26    27    1
    54    26    54    1
    55    27    28    1
    56    27    55    1
    57    27    56    1
    58    28    57    1
    59    28    58    1
@<TRIPOS>SUBSTRUCTURE
     1 ZINC000750807956        1 TEMP              0 ****  ****    0 ROOT


##########                                Name:    ZINC001127302705
##########                DOCK_Rotatable_Bonds:                   9
##########                         Heavy_Atoms:                  28
##########                    Molecular_Weight:             398.892
##########                DOCK_Rotatable_Bonds:                   9
##########                       Formal_Charge:          -0.0200002
##########                     HBond_Acceptors:                   7
##########                        HBond_Donors:                   1
##########                         Heavy_Atoms:                  28
##########                          Grid_Score:          -29.030787
##########                     Grid_vdw_energy:          -28.972582
##########                      Grid_es_energy:           -0.058204
##########           Internal_energy_repulsive:           25.972630

@<TRIPOS>MOLECULE
ZINC001127302705
 51 53 1 0 0
SMALL
USER_CHARGES


@<TRIPOS>ATOM
      1 C1        -12.3769   -0.0062   54.7786 C.3     1  ZINC001127302705   -0.1500
      2 C2        -11.1444    0.7591   54.2924 C.3     1  ZINC001127302705   -0.1400
      3 C3         -9.8790    0.0196   54.7314 C.3     1  ZINC001127302705    0.1800
      4 C4         -9.6968   -1.2335   53.8726 C.3     1  ZINC001127302705   -0.1600
      5 C5         -8.6666    0.9368   54.5591 C.3     1  ZINC001127302705    0.0700
      6 O6         -8.2575    0.9332   53.1899 O.3     1  ZINC001127302705   -0.2800
      7 C7         -7.0693    1.5214   52.9004 C.ar    1  ZINC001127302705    0.3400
      8 N8         -6.8549    2.7758   53.2592 N.ar    1  ZINC001127302705   -0.5300
      9 C9         -5.7140    3.3856   52.9979 C.ar    1  ZINC001127302705    0.1400
     10 C10        -4.6962    2.7299   52.3350 C.ar    1  ZINC001127302705   -0.2000
     11 C11        -4.8809    1.4116   51.9409 C.ar    1  ZINC001127302705   -0.0300
     12 C12        -6.0867    0.7975   52.2346 C.ar    1  ZINC001127302705   -0.1100
     13 Cl13       -6.3726   -0.8494   51.7658 Cl      1  ZINC001127302705   -0.0400
     14 N14       -10.0027   -0.3669   56.1391 N.am    1  ZINC001127302705   -0.7100
     15 C15       -10.0652    0.5810   57.0952 C.2     1  ZINC001127302705    0.6200
     16 O16       -10.0205    1.7568   56.7893 O.2     1  ZINC001127302705   -0.5200
     17 C17       -10.1882    0.1914   58.5146 C.2     1  ZINC001127302705   -0.0200
     18 N18       -10.3065    1.0059   59.5442 N.2     1  ZINC001127302705   -0.2500
     19 N19       -10.3908    0.3302   60.6336 N.pl3   1  ZINC001127302705   -0.2800
     20 C20       -10.5319    0.9110   61.9710 C.3     1  ZINC001127302705    0.1600
     21 C21        -9.1675    1.2226   62.5298 C.ar    1  ZINC001127302705   -0.1200
     22 C22        -8.0636    0.5142   62.0934 C.ar    1  ZINC001127302705   -0.1000
     23 C23        -6.8120    0.8000   62.6060 C.ar    1  ZINC001127302705   -0.1200
     24 C24        -6.6642    1.7944   63.5548 C.ar    1  ZINC001127302705   -0.1100
     25 C25        -7.7680    2.5034   63.9906 C.ar    1  ZINC001127302705   -0.1200
     26 C26        -9.0190    2.2205   63.4747 C.ar    1  ZINC001127302705   -0.0800
     27 C27       -10.3308   -0.9926   60.3685 C.2     1  ZINC001127302705   -0.0200
     28 C28       -10.2075   -1.1275   59.0272 C.2     1  ZINC001127302705   -0.1800
     29 H29       -12.3556   -0.0761   55.8662 H       1  ZINC001127302705    0.0500
     30 H30       -13.2784    0.5206   54.4659 H       1  ZINC001127302705    0.0600
     31 H31       -12.3747   -1.0085   54.3501 H       1  ZINC001127302705    0.0500
     32 H32       -11.1657    0.8288   53.2049 H       1  ZINC001127302705    0.0900
     33 H33       -11.1467    1.7613   54.7210 H       1  ZINC001127302705    0.0800
     34 H34        -9.6047   -0.9459   52.8252 H       1  ZINC001127302705    0.0700
     35 H35        -8.7952   -1.7603   54.1853 H       1  ZINC001127302705    0.0500
     36 H36       -10.5605   -1.8869   53.9954 H       1  ZINC001127302705    0.0800
     37 H37        -8.9332    1.9511   54.8561 H       1  ZINC001127302705    0.0800
     38 H38        -7.8483    0.5785   55.1837 H       1  ZINC001127302705    0.0700
     39 H39        -5.5751    4.4113   53.3065 H       1  ZINC001127302705    0.1700
     40 H40        -3.7662    3.2371   52.1248 H       1  ZINC001127302705    0.1500
     41 H41        -4.1005    0.8759   51.4208 H       1  ZINC001127302705    0.1500
     42 H42       -10.0396   -1.3049   56.3831 H       1  ZINC001127302705    0.4100
     43 H43       -11.1173    1.8283   61.9089 H       1  ZINC001127302705    0.1000
     44 H44       -11.0383    0.2003   62.6242 H       1  ZINC001127302705    0.1100
     45 H45        -8.1790   -0.2627   61.3521 H       1  ZINC001127302705    0.1200
     46 H46        -5.9496    0.2461   62.2654 H       1  ZINC001127302705    0.1300
     47 H47        -5.6865    2.0172   63.9558 H       1  ZINC001127302705    0.1200
     48 H48        -7.6527    3.2801   64.7320 H       1  ZINC001127302705    0.1300
     49 H49        -9.8813    2.7744   63.8152 H       1  ZINC001127302705    0.1300
     50 H50       -10.3774   -1.7937   61.0913 H       1  ZINC001127302705    0.1800
     51 H51       -10.1322   -2.0476   58.4669 H       1  ZINC001127302705    0.1600
@<TRIPOS>BOND
     1     1     2    1
     2     1    29    1
     3     1    30    1
     4     1    31    1
     5     2     3    1
     6     2    32    1
     7     2    33    1
     8     3     4    1
     9     3     5    1
    10     3    14    1
    11     4    34    1
    12     4    35    1
    13     4    36    1
    14     5     6    1
    15     5    37    1
    16     5    38    1
    17     6     7    1
    18     7    12   ar
    19     7     8   ar
    20     8     9   ar
    21     9    10   ar
    22     9    39    1
    23    10    11   ar
    24    10    40    1
    25    11    12   ar
    26    11    41    1
    27    12    13    1
    28    14    15   am
    29    14    42    1
    30    15    16    2
    31    15    17    1
    32    17    28    1
    33    17    18    2
    34    18    19    1
    35    19    20    1
    36    19    27    1
    37    20    21    1
    38    20    43    1
    39    20    44    1
    40    21    26   ar
    41    21    22   ar
    42    22    23   ar
    43    22    45    1
    44    23    24   ar
    45    23    46    1
    46    24    25   ar
    47    24    47    1
    48    25    26   ar
    49    25    48    1
    50    26    49    1
    51    27    28    2
    52    27    50    1
    53    28    51    1
@<TRIPOS>SUBSTRUCTURE
     1 ZINC001127302705        1 TEMP              0 ****  ****    0 ROOT


##########                                Name:    ZINC001707162141
##########                DOCK_Rotatable_Bonds:                   9
##########                         Heavy_Atoms:                  25
##########                    Molecular_Weight:               344.5
##########                DOCK_Rotatable_Bonds:                   9
##########                       Formal_Charge:          -0.0299999
##########                     HBond_Acceptors:                   5
##########                        HBond_Donors:                   1
##########                         Heavy_Atoms:                  25
##########                          Grid_Score:          -29.012682
##########                     Grid_vdw_energy:          -29.184494
##########                      Grid_es_energy:            0.171811
##########           Internal_energy_repulsive:           78.135559

@<TRIPOS>MOLECULE
ZINC001707162141
 57 59 1 0 0
SMALL
USER_CHARGES


@<TRIPOS>ATOM
      1 C1         -8.6613   -0.0538   58.7783 C.3     1  ZINC001707162141   -0.1800
      2 C2         -7.4211    0.8124   59.0073 C.3     1  ZINC001707162141    0.1700
      3 H3         -6.5369    0.2813   58.6547 H       1  ZINC001707162141    0.1000
      4 N4         -7.5616    2.0742   58.2683 N.3     1  ZINC001707162141   -0.6400
      5 C5         -6.2624    2.5337   57.7595 C.3     1  ZINC001707162141    0.0700
      6 C6         -6.4755    3.3613   56.4905 C.3     1  ZINC001707162141    0.1500
      7 H7         -7.0135    4.2767   56.7372 H       1  ZINC001707162141    0.0700
      8 C8         -7.2822    2.5459   55.4751 C.3     1  ZINC001707162141   -0.1200
      9 C9         -7.3728    3.3227   54.1596 C.3     1  ZINC001707162141   -0.0900
     10 H10        -7.8455    4.2882   54.3400 H       1  ZINC001707162141    0.0700
     11 C11        -8.2072    2.5267   53.1540 C.3     1  ZINC001707162141   -0.1500
     12 C12        -5.9668    3.5407   53.5961 C.3     1  ZINC001707162141   -0.1300
     13 C13        -5.1451    4.3674   54.5902 C.3     1  ZINC001707162141    0.1100
     14 N14        -5.1740    3.6994   55.8985 N.am    1  ZINC001707162141   -0.6100
     15 C15        -4.0284    3.4018   56.5430 C.2     1  ZINC001707162141    0.5100
     16 O16        -4.0655    2.8502   57.6225 O.2     1  ZINC001707162141   -0.4800
     17 C17        -2.7011    3.7544   55.9224 C.3     1  ZINC001707162141   -0.1400
     18 C18        -1.5689    3.2726   56.8316 C.3     1  ZINC001707162141   -0.0900
     19 C19        -0.2226    3.6791   56.2288 C.3     1  ZINC001707162141   -0.0900
     20 C20         0.8687    3.5655   57.2950 C.3     1  ZINC001707162141   -0.1500
     21 C21         2.1421    2.8027   56.9241 C.3     1  ZINC001707162141   -0.1800
     22 C22         1.1325    2.1814   57.8913 C.3     1  ZINC001707162141   -0.1800
     23 C23        -7.2777    1.1053   60.4787 C.ar    1  ZINC001707162141    0.3500
     24 N24        -6.7213    0.2024   61.2611 N.ar    1  ZINC001707162141   -0.5000
     25 C25        -6.5735    0.4268   62.5568 C.ar    1  ZINC001707162141    0.1500
     26 C26        -7.0232    1.6249   63.0891 C.ar    1  ZINC001707162141   -0.2400
     27 C27        -7.6080    2.5472   62.2356 C.ar    1  ZINC001707162141    0.1500
     28 N28        -7.7168    2.2552   60.9495 N.ar    1  ZINC001707162141   -0.5200
     29 H29        -8.7651   -0.2655   57.7142 H       1  ZINC001707162141    0.0600
     30 H30        -8.5571   -0.9899   59.3267 H       1  ZINC001707162141    0.0600
     31 H31        -9.5455    0.4774   59.1309 H       1  ZINC001707162141    0.0600
     32 H32        -8.2311    1.9818   57.5192 H       1  ZINC001707162141    0.3300
     33 H33        -5.7726    3.1474   58.5155 H       1  ZINC001707162141    0.1000
     34 H34        -5.6364    1.6715   57.5301 H       1  ZINC001707162141    0.0200
     35 H35        -6.7873    1.5906   55.3002 H       1  ZINC001707162141    0.0700
     36 H36        -8.2853    2.3706   55.8639 H       1  ZINC001707162141    0.0700
     37 H37        -7.7344    1.5614   52.9730 H       1  ZINC001707162141    0.0500
     38 H38        -9.2087    2.3713   53.5551 H       1  ZINC001707162141    0.0600
     39 H39        -8.2727    3.0804   52.2174 H       1  ZINC001707162141    0.0600
     40 H40        -6.0335    4.0735   52.6475 H       1  ZINC001707162141    0.0700
     41 H41        -5.4842    2.5761   53.4388 H       1  ZINC001707162141    0.0700
     42 H42        -5.5756    5.3648   54.6796 H       1  ZINC001707162141    0.0600
     43 H43        -4.1154    4.4417   54.2405 H       1  ZINC001707162141    0.0800
     44 H44        -2.6156    3.2719   54.9488 H       1  ZINC001707162141    0.0800
     45 H45        -2.6333    4.8354   55.7994 H       1  ZINC001707162141    0.0800
     46 H46        -1.6770    3.7249   57.8175 H       1  ZINC001707162141    0.0700
     47 H47        -1.6132    2.1873   56.9229 H       1  ZINC001707162141    0.0700
     48 H48         0.0153    3.0203   55.3937 H       1  ZINC001707162141    0.0600
     49 H49        -0.2791    4.7085   55.8748 H       1  ZINC001707162141    0.0600
     50 H50         0.9717    4.4261   57.9560 H       1  ZINC001707162141    0.1000
     51 H51         2.2023    2.3819   55.9204 H       1  ZINC001707162141    0.0900
     52 H52         3.0832    3.1616   57.3409 H       1  ZINC001707162141    0.0900
     53 H53         1.4092    2.1314   58.9444 H       1  ZINC001707162141    0.0900
     54 H54         0.5285    1.3517   57.5239 H       1  ZINC001707162141    0.0900
     55 H55        -6.1131   -0.3155   63.1919 H       1  ZINC001707162141    0.1600
     56 H56        -6.9201    1.8350   64.1434 H       1  ZINC001707162141    0.1400
     57 H57        -7.9702    3.4912   62.6152 H       1  ZINC001707162141    0.1600
@<TRIPOS>BOND
     1     1     2    1
     2     1    29    1
     3     1    30    1
     4     1    31    1
     5     2     3    1
     6     2     4    1
     7     2    23    1
     8     4     5    1
     9     4    32    1
    10     5     6    1
    11     5    33    1
    12     5    34    1
    13     6     7    1
    14     6    14    1
    15     6     8    1
    16     8     9    1
    17     8    35    1
    18     8    36    1
    19     9    10    1
    20     9    11    1
    21     9    12    1
    22    11    37    1
    23    11    38    1
    24    11    39    1
    25    12    13    1
    26    12    40    1
    27    12    41    1
    28    13    14    1
    29    13    42    1
    30    13    43    1
    31    14    15   am
    32    15    16    2
    33    15    17    1
    34    17    18    1
    35    17    44    1
    36    17    45    1
    37    18    19    1
    38    18    46    1
    39    18    47    1
    40    19    20    1
    41    19    48    1
    42    19    49    1
    43    20    22    1
    44    20    21    1
    45    20    50    1
    46    21    22    1
    47    21    51    1
    48    21    52    1
    49    22    53    1
    50    22    54    1
    51    23    28   ar
    52    23    24   ar
    53    24    25   ar
    54    25    26   ar
    55    25    55    1
    56    26    27   ar
    57    26    56    1
    58    27    28   ar
    59    27    57    1
@<TRIPOS>SUBSTRUCTURE
     1 ZINC001707162141        1 TEMP              0 ****  ****    0 ROOT


##########                                Name:    ZINC000469435497
##########                DOCK_Rotatable_Bonds:                   6
##########                         Heavy_Atoms:                  27
##########                    Molecular_Weight:             364.444
##########                DOCK_Rotatable_Bonds:                   6
##########                       Formal_Charge:           0.0300001
##########                     HBond_Acceptors:                   5
##########                        HBond_Donors:                   2
##########                         Heavy_Atoms:                  27
##########                          Grid_Score:          -29.007326
##########                     Grid_vdw_energy:          -27.698812
##########                      Grid_es_energy:           -1.308514
##########           Internal_energy_repulsive:            3.632309

@<TRIPOS>MOLECULE
ZINC000469435497
 51 54 1 0 0
SMALL
USER_CHARGES


@<TRIPOS>ATOM
      1 C1        -12.2377    0.7011   52.6727 C.3     1  ZINC000469435497   -0.1600
      2 C2        -11.5660    0.1765   53.9434 C.3     1  ZINC000469435497    0.1000
      3 C3        -12.5713   -0.5827   54.8115 C.3     1  ZINC000469435497   -0.1400
      4 C4        -10.3532   -0.7176   53.5930 C.3     1  ZINC000469435497   -0.1000
      5 C5         -9.2103    0.2787   53.6216 C.ar    1  ZINC000469435497   -0.1500
      6 C6         -7.9209    0.2180   53.1432 C.ar    1  ZINC000469435497   -0.0700
      7 C7         -7.0699    1.3048   53.3043 C.ar    1  ZINC000469435497    0.1100
      8 N8         -5.7565    1.2492   52.8194 N.am    1  ZINC000469435497   -0.6600
      9 C9         -5.4602    1.7766   51.6150 C.2     1  ZINC000469435497    0.5100
     10 O10        -6.3303    2.2991   50.9510 O.2     1  ZINC000469435497   -0.5200
     11 C11        -4.0476    1.7169   51.0933 C.3     1  ZINC000469435497    0.1000
     12 N12        -3.1917    2.5903   51.8999 N.am    1  ZINC000469435497   -0.7200
     13 C13        -1.8537    2.5548   51.7425 C.2     1  ZINC000469435497    0.5700
     14 O14        -1.3570    1.7971   50.9322 O.2     1  ZINC000469435497   -0.5300
     15 C15        -0.9900    3.4376   52.5554 C.ar    1  ZINC000469435497   -0.1400
     16 C16        -1.5561    4.3082   53.4875 C.ar    1  ZINC000469435497   -0.0800
     17 C17        -0.7430    5.1276   54.2410 C.ar    1  ZINC000469435497   -0.1100
     18 C18         0.6331    5.0922   54.0784 C.ar    1  ZINC000469435497   -0.0700
     19 C19         1.7209    5.8819   54.7756 C.3     1  ZINC000469435497   -0.0900
     20 C20         3.0253    5.1050   54.4984 C.3     1  ZINC000469435497   -0.1200
     21 C21         2.7067    4.3844   53.1714 C.3     1  ZINC000469435497   -0.0800
     22 C22         1.2006    4.2308   53.1554 C.ar    1  ZINC000469435497   -0.1100
     23 C23         0.3955    3.4008   52.3989 C.ar    1  ZINC000469435497   -0.0400
     24 C24        -7.5286    2.4458   53.9484 C.ar    1  ZINC000469435497   -0.1000
     25 C25        -8.8198    2.5011   54.4296 C.ar    1  ZINC000469435497   -0.1200
     26 C26        -9.6756    1.4138   54.2735 C.ar    1  ZINC000469435497    0.1000
     27 O27       -10.9649    1.2528   54.6831 O.3     1  ZINC000469435497   -0.3000
     28 H28       -11.4984    1.2108   52.0548 H       1  ZINC000469435497    0.0600
     29 H29       -12.6634   -0.1335   52.1157 H       1  ZINC000469435497    0.0800
     30 H30       -13.0298    1.3997   52.9423 H       1  ZINC000469435497    0.0700
     31 H31       -12.9623   -1.4342   54.2544 H       1  ZINC000469435497    0.0800
     32 H32       -12.0763   -0.9365   55.7158 H       1  ZINC000469435497    0.0700
     33 H33       -13.3918    0.0816   55.0827 H       1  ZINC000469435497    0.0700
     34 H34       -10.2119   -1.4943   54.3446 H       1  ZINC000469435497    0.0900
     35 H35       -10.4649   -1.1540   52.6004 H       1  ZINC000469435497    0.0900
     36 H36        -7.5710   -0.6732   52.6437 H       1  ZINC000469435497    0.1400
     37 H37        -5.0606    0.8314   53.3504 H       1  ZINC000469435497    0.4200
     38 H38        -3.6809    0.6922   51.1538 H       1  ZINC000469435497    0.1100
     39 H39        -4.0294    2.0485   50.0551 H       1  ZINC000469435497    0.1100
     40 H40        -3.5880    3.1942   52.5475 H       1  ZINC000469435497    0.4100
     41 H41        -2.6277    4.3401   53.6181 H       1  ZINC000469435497    0.1300
     42 H42        -1.1811    5.8018   54.9623 H       1  ZINC000469435497    0.1300
     43 H43         1.7839    6.8875   54.3597 H       1  ZINC000469435497    0.0900
     44 H44         1.5279    5.9266   55.8475 H       1  ZINC000469435497    0.0800
     45 H45         3.8650    5.7891   54.3759 H       1  ZINC000469435497    0.0800
     46 H46         3.2234    4.3850   55.2924 H       1  ZINC000469435497    0.0700
     47 H47         3.0344    4.9881   52.3251 H       1  ZINC000469435497    0.0800
     48 H48         3.1869    3.4062   53.1476 H       1  ZINC000469435497    0.0800
     49 H49         0.8395    2.7249   51.6829 H       1  ZINC000469435497    0.1400
     50 H50        -6.8714    3.2937   54.0733 H       1  ZINC000469435497    0.1400
     51 H51        -9.1692    3.3923   54.9298 H       1  ZINC000469435497    0.1300
@<TRIPOS>BOND
     1     1     2    1
     2     1    28    1
     3     1    29    1
     4     1    30    1
     5     2    27    1
     6     2     3    1
     7     2     4    1
     8     3    31    1
     9     3    32    1
    10     3    33    1
    11     4     5    1
    12     4    34    1
    13     4    35    1
    14     5    26   ar
    15     5     6   ar
    16     6     7   ar
    17     6    36    1
    18     7     8    1
    19     7    24   ar
    20     8     9   am
    21     8    37    1
    22     9    10    2
    23     9    11    1
    24    11    12    1
    25    11    38    1
    26    11    39    1
    27    12    13   am
    28    12    40    1
    29    13    14    2
    30    13    15    1
    31    15    23   ar
    32    15    16   ar
    33    16    17   ar
    34    16    41    1
    35    17    18   ar
    36    17    42    1
    37    18    22   ar
    38    18    19    1
    39    19    20    1
    40    19    43    1
    41    19    44    1
    42    20    21    1
    43    20    45    1
    44    20    46    1
    45    21    22    1
    46    21    47    1
    47    21    48    1
    48    22    23   ar
    49    23    49    1
    50    24    25   ar
    51    24    50    1
    52    25    26   ar
    53    25    51    1
    54    26    27    1
@<TRIPOS>SUBSTRUCTURE
     1 ZINC000469435497        1 TEMP              0 ****  ****    0 ROOT


##########                                Name:    ZINC000502834785
##########                DOCK_Rotatable_Bonds:                   9
##########                         Heavy_Atoms:                  26
##########                    Molecular_Weight:             356.468
##########                DOCK_Rotatable_Bonds:                   9
##########                       Formal_Charge:           0.0199998
##########                     HBond_Acceptors:                   6
##########                        HBond_Donors:                   2
##########                         Heavy_Atoms:                  26
##########                          Grid_Score:          -28.996304
##########                     Grid_vdw_energy:          -30.144873
##########                      Grid_es_energy:            1.148570
##########           Internal_energy_repulsive:           23.002645

@<TRIPOS>MOLECULE
ZINC000502834785
 54 56 1 0 0
SMALL
USER_CHARGES


@<TRIPOS>ATOM
      1 C1         -0.4426    3.5117   57.6675 C.3     1  ZINC000502834785   -0.1800
      2 C2         -0.0298    3.8660   56.2375 C.3     1  ZINC000502834785    0.0800
      3 C3          1.3290    3.2343   55.9276 C.3     1  ZINC000502834785   -0.1500
      4 O4         -1.0070    3.3667   55.3221 O.3     1  ZINC000502834785   -0.3800
      5 C5         -1.1340    4.1411   54.1279 C.3     1  ZINC000502834785    0.1000
      6 C6         -2.3966    3.7473   53.4057 C.ar    1  ZINC000502834785   -0.0800
      7 C7         -2.3477    2.8151   52.3861 C.ar    1  ZINC000502834785   -0.1000
      8 C8         -3.5060    2.4539   51.7237 C.ar    1  ZINC000502834785   -0.1000
      9 C9         -4.7132    3.0246   52.0812 C.ar    1  ZINC000502834785   -0.1000
     10 C10        -5.9760    2.6312   51.3586 C.3     1  ZINC000502834785    0.1600
     11 N11        -7.0107    2.2857   52.3364 N.am    1  ZINC000502834785   -0.7300
     12 C12        -7.1234    1.0175   52.7785 C.2     1  ZINC000502834785    0.5100
     13 O13        -6.3675    0.1626   52.3678 O.2     1  ZINC000502834785   -0.5200
     14 C14        -8.1890    0.6617   53.7831 C.3     1  ZINC000502834785    0.0300
     15 N15        -9.4441    1.3359   53.4250 N.3     1  ZINC000502834785   -0.5000
     16 C16        -9.4174    2.7568   53.8327 C.3     1  ZINC000502834785    0.0500
     17 C17       -10.8806    3.0845   54.2214 C.3     1  ZINC000502834785   -0.1300
     18 C18       -11.3287    1.7623   54.8980 C.3     1  ZINC000502834785   -0.1300
     19 C19       -10.5974    0.6836   54.0716 C.3     1  ZINC000502834785    0.1500
     20 H20       -11.2681    0.2794   53.3133 H       1  ZINC000502834785    0.1100
     21 C21       -10.1230   -0.4227   54.9782 C.2     1  ZINC000502834785    0.0600
     22 N22        -9.6965   -0.2782   56.2067 N.2     1  ZINC000502834785   -0.2900
     23 N23        -9.3511   -1.5423   56.7017 N.pl3   1  ZINC000502834785   -0.4800
     24 C24        -9.5852   -2.4475   55.7287 C.2     1  ZINC000502834785    0.0600
     25 C25       -10.0683   -1.7823   54.6539 C.2     1  ZINC000502834785   -0.2600
     26 C26        -4.7624    3.9558   53.1016 C.ar    1  ZINC000502834785   -0.1000
     27 C27        -3.6047    4.3141   53.7666 C.ar    1  ZINC000502834785   -0.1000
     28 H28        -1.4105    3.9617   57.8883 H       1  ZINC000502834785    0.0600
     29 H29        -0.5140    2.4287   57.7674 H       1  ZINC000502834785    0.0600
     30 H30         0.3029    3.8925   58.3658 H       1  ZINC000502834785    0.0700
     31 H31         0.0418    4.9490   56.1376 H       1  ZINC000502834785    0.0600
     32 H32         1.2574    2.1513   56.0275 H       1  ZINC000502834785    0.0600
     33 H33         1.6230    3.4867   54.9089 H       1  ZINC000502834785    0.0600
     34 H34         2.0743    3.6152   56.6258 H       1  ZINC000502834785    0.0700
     35 H35        -1.1769    5.1997   54.3841 H       1  ZINC000502834785    0.0600
     36 H36        -0.2744    3.9580   53.4831 H       1  ZINC000502834785    0.0600
     37 H37        -1.4045    2.3692   52.1069 H       1  ZINC000502834785    0.1300
     38 H38        -3.4677    1.7262   50.9267 H       1  ZINC000502834785    0.1300
     39 H39        -6.3189    3.4651   50.7461 H       1  ZINC000502834785    0.0800
     40 H40        -5.7764    1.7700   50.7211 H       1  ZINC000502834785    0.0800
     41 H41        -7.6145    2.9697   52.6658 H       1  ZINC000502834785    0.4000
     42 H42        -8.3432   -0.4173   53.7824 H       1  ZINC000502834785    0.1000
     43 H43        -7.8743    0.9832   54.7758 H       1  ZINC000502834785    0.0800
     44 H44        -8.7575    2.8933   54.6895 H       1  ZINC000502834785    0.0400
     45 H45        -9.0959    3.3842   53.0014 H       1  ZINC000502834785    0.1000
     46 H46       -10.9209    3.9162   54.9247 H       1  ZINC000502834785    0.0800
     47 H47       -11.4821    3.2936   53.3368 H       1  ZINC000502834785    0.0800
     48 H48       -11.0072    1.7340   55.9392 H       1  ZINC000502834785    0.0800
     49 H49       -12.4091    1.6382   54.8237 H       1  ZINC000502834785    0.0800
     50 H50        -9.0049   -1.7333   57.5875 H       1  ZINC000502834785    0.4400
     51 H51        -9.4206   -3.5127   55.7970 H       1  ZINC000502834785    0.1800
     52 H52       -10.3549   -2.2224   53.7102 H       1  ZINC000502834785    0.1500
     53 H53        -5.7057    4.4014   53.3811 H       1  ZINC000502834785    0.1300
     54 H54        -3.6431    5.0416   54.5639 H       1  ZINC000502834785    0.1200
@<TRIPOS>BOND
     1     1     2    1
     2     1    28    1
     3     1    29    1
     4     1    30    1
     5     2     3    1
     6     2     4    1
     7     2    31    1
     8     3    32    1
     9     3    33    1
    10     3    34    1
    11     4     5    1
    12     5     6    1
    13     5    35    1
    14     5    36    1
    15     6    27   ar
    16     6     7   ar
    17     7     8   ar
    18     7    37    1
    19     8     9   ar
    20     8    38    1
    21     9    10    1
    22     9    26   ar
    23    10    11    1
    24    10    39    1
    25    10    40    1
    26    11    12   am
    27    11    41    1
    28    12    13    2
    29    12    14    1
    30    14    15    1
    31    14    42    1
    32    14    43    1
    33    15    19    1
    34    15    16    1
    35    16    17    1
    36    16    44    1
    37    16    45    1
    38    17    18    1
    39    17    46    1
    40    17    47    1
    41    18    19    1
    42    18    48    1
    43    18    49    1
    44    19    20    1
    45    19    21    1
    46    21    25    1
    47    21    22    2
    48    22    23    1
    49    23    24    1
    50    23    50    1
    51    24    25    2
    52    24    51    1
    53    25    52    1
    54    26    27   ar
    55    26    53    1
    56    27    54    1
@<TRIPOS>SUBSTRUCTURE
     1 ZINC000502834785        1 TEMP              0 ****  ****    0 ROOT


##########                                Name:    ZINC000425987417
##########                DOCK_Rotatable_Bonds:                   9
##########                         Heavy_Atoms:                  25
##########                    Molecular_Weight:             357.419
##########                DOCK_Rotatable_Bonds:                   9
##########                       Formal_Charge:         -0.00999992
##########                     HBond_Acceptors:                   7
##########                        HBond_Donors:                   1
##########                         Heavy_Atoms:                  25
##########                          Grid_Score:          -28.972479
##########                     Grid_vdw_energy:          -28.983093
##########                      Grid_es_energy:            0.010614
##########           Internal_energy_repulsive:           14.597491

@<TRIPOS>MOLECULE
ZINC000425987417
 51 52 1 0 0
SMALL
USER_CHARGES


@<TRIPOS>ATOM
      1 C1         -5.2083    4.3148   58.1227 C.3     1  ZINC000425987417   -0.1500
      2 C2         -5.7947    3.2934   59.0993 C.3     1  ZINC000425987417    0.0400
      3 N3         -7.0407    2.7462   58.5460 N.3     1  ZINC000425987417   -0.5300
      4 C4         -6.7723    1.5723   57.7047 C.3     1  ZINC000425987417    0.0400
      5 C5         -7.4598    1.7483   56.3493 C.3     1  ZINC000425987417    0.1400
      6 N6         -6.5209    2.3515   55.4001 N.am    1  ZINC000425987417   -0.7500
      7 C7         -6.6755    2.1467   54.0770 C.2     1  ZINC000425987417    0.7200
      8 O8         -7.5943    1.4616   53.6711 O.2     1  ZINC000425987417   -0.5800
      9 N9         -5.8117    2.7016   53.2038 N.am    1  ZINC000425987417   -0.6200
     10 C10        -5.9529    2.4973   51.7526 C.3     1  ZINC000425987417    0.1300
     11 C11        -4.7268    1.7268   51.2653 C.3     1  ZINC000425987417   -0.1000
     12 C12        -3.4606    2.3363   51.8068 C.ar    1  ZINC000425987417   -0.0600
     13 C13        -2.2728    2.0471   51.1467 C.ar    1  ZINC000425987417   -0.1200
     14 C14        -1.0759    2.5652   51.5962 C.ar    1  ZINC000425987417   -0.1100
     15 C15        -1.0552    3.3783   52.7138 C.ar    1  ZINC000425987417   -0.1200
     16 C16        -2.2340    3.6700   53.3695 C.ar    1  ZINC000425987417   -0.1100
     17 C17        -3.4395    3.1540   52.9147 C.ar    1  ZINC000425987417   -0.0900
     18 C18        -4.6969    3.5382   53.6610 C.3     1  ZINC000425987417    0.1800
     19 H19        -4.5448    3.3875   54.7297 H       1  ZINC000425987417    0.0900
     20 C20        -5.0170    5.0106   53.3949 C.3     1  ZINC000425987417   -0.1600
     21 C21        -7.9934    2.4206   59.6158 C.3     1  ZINC000425987417    0.0500
     22 C22        -7.2810    1.6185   60.7066 C.3     1  ZINC000425987417   -0.1600
     23 C23        -8.3197    0.9749   61.6272 C.3     1  ZINC000425987417    0.4500
     24 F24        -9.1179    1.9718   62.1984 F       1  ZINC000425987417   -0.1800
     25 F25        -9.1231    0.1021   60.8858 F       1  ZINC000425987417   -0.1800
     26 F26        -7.6679    0.2625   62.6395 F       1  ZINC000425987417   -0.1900
     27 H27        -5.9041    5.1455   58.0045 H       1  ZINC000425987417    0.0500
     28 H28        -4.2607    4.6871   58.5118 H       1  ZINC000425987417    0.0600
     29 H29        -5.0425    3.8395   57.1559 H       1  ZINC000425987417    0.0700
     30 H30        -5.0796    2.4852   59.2526 H       1  ZINC000425987417    0.0800
     31 H31        -6.0031    3.7799   60.0522 H       1  ZINC000425987417    0.0400
     32 H32        -5.6973    1.4699   57.5563 H       1  ZINC000425987417    0.0500
     33 H33        -7.1582    0.6784   58.1946 H       1  ZINC000425987417    0.0800
     34 H34        -7.7801    0.7759   55.9754 H       1  ZINC000425987417    0.0800
     35 H35        -8.3279    2.3975   56.4639 H       1  ZINC000425987417    0.0700
     36 H36        -5.7880    2.8981   55.7240 H       1  ZINC000425987417    0.3900
     37 H37        -6.8557    1.9219   51.5474 H       1  ZINC000425987417    0.1000
     38 H38        -6.0070    3.4619   51.2480 H       1  ZINC000425987417    0.0700
     39 H39        -4.7978    0.6917   51.5992 H       1  ZINC000425987417    0.0800
     40 H40        -4.6985    1.7501   50.1759 H       1  ZINC000425987417    0.0900
     41 H41        -2.2865    1.4107   50.2742 H       1  ZINC000425987417    0.1200
     42 H42        -0.1574    2.3358   51.0765 H       1  ZINC000425987417    0.1200
     43 H43        -0.1205    3.7833   53.0726 H       1  ZINC000425987417    0.1200
     44 H44        -2.2183    4.3047   54.2431 H       1  ZINC000425987417    0.1200
     45 H45        -5.1677    5.1622   52.3261 H       1  ZINC000425987417    0.0700
     46 H46        -5.9236    5.2882   53.9327 H       1  ZINC000425987417    0.0600
     47 H47        -4.1878    5.6301   53.7364 H       1  ZINC000425987417    0.0700
     48 H48        -8.3895    3.3421   60.0425 H       1  ZINC000425987417    0.0500
     49 H49        -8.8118    1.8290   59.2056 H       1  ZINC000425987417    0.0900
     50 H50        -6.6718    0.8405   60.2462 H       1  ZINC000425987417    0.1200
     51 H51        -6.6424    2.2834   61.2880 H       1  ZINC000425987417    0.1100
@<TRIPOS>BOND
     1     1     2    1
     2     1    27    1
     3     1    28    1
     4     1    29    1
     5     2     3    1
     6     2    30    1
     7     2    31    1
     8     3     4    1
     9     3    21    1
    10     4     5    1
    11     4    32    1
    12     4    33    1
    13     5     6    1
    14     5    34    1
    15     5    35    1
    16     6     7   am
    17     6    36    1
    18     7     8    2
    19     7     9   am
    20     9    18    1
    21     9    10    1
    22    10    11    1
    23    10    37    1
    24    10    38    1
    25    11    12    1
    26    11    39    1
    27    11    40    1
    28    12    17   ar
    29    12    13   ar
    30    13    14   ar
    31    13    41    1
    32    14    15   ar
    33    14    42    1
    34    15    16   ar
    35    15    43    1
    36    16    17   ar
    37    16    44    1
    38    17    18    1
    39    18    19    1
    40    18    20    1
    41    20    45    1
    42    20    46    1
    43    20    47    1
    44    21    22    1
    45    21    48    1
    46    21    49    1
    47    22    23    1
    48    22    50    1
    49    22    51    1
    50    23    24    1
    51    23    25    1
    52    23    26    1
@<TRIPOS>SUBSTRUCTURE
     1 ZINC000425987417        1 TEMP              0 ****  ****    0 ROOT


##########                                Name:    ZINC001327099466
##########                DOCK_Rotatable_Bonds:                   7
##########                         Heavy_Atoms:                  27
##########                    Molecular_Weight:             374.483
##########                DOCK_Rotatable_Bonds:                   7
##########                       Formal_Charge:           0.0199998
##########                     HBond_Acceptors:                   7
##########                        HBond_Donors:                   1
##########                         Heavy_Atoms:                  27
##########                          Grid_Score:          -28.953634
##########                     Grid_vdw_energy:          -29.413099
##########                      Grid_es_energy:            0.459465
##########           Internal_energy_repulsive:           12.473959

@<TRIPOS>MOLECULE
ZINC001327099466
 57 60 1 0 0
SMALL
USER_CHARGES


@<TRIPOS>ATOM
      1 O1          0.3050    4.1408   55.7100 O.2     1  ZINC001327099466   -0.4800
      2 C2         -0.6462    3.3943   55.6044 C.2     1  ZINC001327099466    0.5300
      3 N3         -0.8003    2.3723   56.4695 N.am    1  ZINC001327099466   -0.6000
      4 C4          0.1395    2.1685   57.4859 C.2     1  ZINC001327099466    0.2900
      5 N5         -0.1270    1.9996   58.7602 N.2     1  ZINC001327099466   -0.3100
      6 N6          1.0852    1.8274   59.4407 N.pl3   1  ZINC001327099466   -0.3500
      7 C7          1.2398    1.6084   60.8809 C.3     1  ZINC001327099466    0.1700
      8 C8          1.2501    0.1060   61.1701 C.3     1  ZINC001327099466   -0.1300
      9 C9          1.4118   -0.1227   62.6743 C.3     1  ZINC001327099466   -0.1200
     10 C10         2.7290    0.4965   63.1457 C.3     1  ZINC001327099466   -0.1300
     11 C11         2.7188    1.9988   62.8564 C.3     1  ZINC001327099466   -0.1200
     12 C12         2.5573    2.2275   61.3523 C.3     1  ZINC001327099466   -0.1300
     13 C13         2.0857    1.8978   58.5373 C.2     1  ZINC001327099466    0.0700
     14 C14         1.5328    2.1027   57.3206 C.2     1  ZINC001327099466   -0.2700
     15 C15        -1.6493    3.6118   54.5195 C.2     1  ZINC001327099466    0.5100
     16 O16        -1.4412    3.1793   53.4049 O.2     1  ZINC001327099466   -0.5100
     17 N17        -2.7857    4.2887   54.7782 N.am    1  ZINC001327099466   -0.5700
     18 C18        -3.0518    4.8186   56.1226 C.3     1  ZINC001327099466    0.0400
     19 C19        -4.4218    4.3157   56.5886 C.3     1  ZINC001327099466   -0.1300
     20 C20        -5.4787    4.6872   55.5459 C.3     1  ZINC001327099466   -0.1200
     21 C21        -5.1436    4.0117   54.2143 C.3     1  ZINC001327099466    0.0800
     22 H22        -5.1062    2.9313   54.3537 H       1  ZINC001327099466    0.0700
     23 O23        -6.1480    4.3336   53.2500 O.3     1  ZINC001327099466   -0.3500
     24 C24        -6.5020    3.2454   52.3942 C.3     1  ZINC001327099466    0.0600
     25 C25        -7.4777    2.2468   53.0391 C.3     1  ZINC001327099466   -0.1600
     26 C26        -8.6152    3.1217   52.4860 C.3     1  ZINC001327099466   -0.1400
     27 C27        -7.6272    3.5832   51.4018 C.3     1  ZINC001327099466   -0.1400
     28 C28        -3.7793    4.5159   53.7200 C.3     1  ZINC001327099466    0.0900
     29 H29        -1.5626    1.7781   56.3875 H       1  ZINC001327099466    0.4300
     30 H30         0.4092    2.0747   61.4107 H       1  ZINC001327099466    0.1000
     31 H31         0.3116   -0.3351   60.8344 H       1  ZINC001327099466    0.0700
     32 H32         2.0809   -0.3603   60.6405 H       1  ZINC001327099466    0.0700
     33 H33         0.5811    0.3436   63.2040 H       1  ZINC001327099466    0.0700
     34 H34         1.4191   -1.1930   62.8803 H       1  ZINC001327099466    0.0700
     35 H35         2.8442    0.3336   64.2172 H       1  ZINC001327099466    0.0700
     36 H36         3.5598    0.0301   62.6159 H       1  ZINC001327099466    0.0700
     37 H37         1.8881    2.4652   63.3862 H       1  ZINC001327099466    0.0700
     38 H38         3.6574    2.4400   63.1923 H       1  ZINC001327099466    0.0700
     39 H39         3.3879    1.7612   60.8225 H       1  ZINC001327099466    0.0700
     40 H40         2.5499    3.2979   61.1462 H       1  ZINC001327099466    0.0700
     41 H41         3.1407    1.8032   58.7485 H       1  ZINC001327099466    0.1800
     42 H42         2.0679    2.2037   56.3878 H       1  ZINC001327099466    0.1700
     43 H43        -2.2816    4.4715   56.8112 H       1  ZINC001327099466    0.1600
     44 H44        -3.0536    5.9082   56.0921 H       1  ZINC001327099466    0.0700
     45 H45        -4.3912    3.2325   56.7056 H       1  ZINC001327099466    0.0700
     46 H46        -4.6737    4.7783   57.5428 H       1  ZINC001327099466    0.0900
     47 H47        -6.4583    4.3522   55.8868 H       1  ZINC001327099466    0.0800
     48 H48        -5.4917    5.7688   55.4114 H       1  ZINC001327099466    0.0800
     49 H49        -5.6365    2.7738   51.9289 H       1  ZINC001327099466    0.0700
     50 H50        -7.4386    1.2511   52.5975 H       1  ZINC001327099466    0.0900
     51 H51        -7.4295    2.2304   54.1278 H       1  ZINC001327099466    0.0700
     52 H52        -9.4561    2.5489   52.0952 H       1  ZINC001327099466    0.0700
     53 H53        -8.9227    3.9179   53.1640 H       1  ZINC001327099466    0.0800
     54 H54        -7.6995    4.6456   51.1688 H       1  ZINC001327099466    0.0800
     55 H55        -7.6289    2.9528   50.5126 H       1  ZINC001327099466    0.0900
     56 H56        -3.8432    5.5802   53.4938 H       1  ZINC001327099466    0.0900
     57 H57        -3.4893    3.9666   52.8242 H       1  ZINC001327099466    0.1000
@<TRIPOS>BOND
     1     1     2    2
     2     2     3   am
     3     2    15    1
     4     3     4    1
     5     3    29    1
     6     4    14    1
     7     4     5    2
     8     5     6    1
     9     6     7    1
    10     6    13    1
    11     7    12    1
    12     7     8    1
    13     7    30    1
    14     8     9    1
    15     8    31    1
    16     8    32    1
    17     9    10    1
    18     9    33    1
    19     9    34    1
    20    10    11    1
    21    10    35    1
    22    10    36    1
    23    11    12    1
    24    11    37    1
    25    11    38    1
    26    12    39    1
    27    12    40    1
    28    13    14    2
    29    13    41    1
    30    14    42    1
    31    15    16    2
    32    15    17   am
    33    17    28    1
    34    17    18    1
    35    18    19    1
    36    18    43    1
    37    18    44    1
    38    19    20    1
    39    19    45    1
    40    19    46    1
    41    20    21    1
    42    20    47    1
    43    20    48    1
    44    21    22    1
    45    21    23    1
    46    21    28    1
    47    23    24    1
    48    24    27    1
    49    24    25    1
    50    24    49    1
    51    25    26    1
    52    25    50    1
    53    25    51    1
    54    26    27    1
    55    26    52    1
    56    26    53    1
    57    27    54    1
    58    27    55    1
    59    28    56    1
    60    28    57    1
@<TRIPOS>SUBSTRUCTURE
     1 ZINC001327099466        1 TEMP              0 ****  ****    0 ROOT


##########                                Name:    ZINC000182378855
##########                DOCK_Rotatable_Bonds:                   8
##########                         Heavy_Atoms:                  27
##########                    Molecular_Weight:              394.83
##########                DOCK_Rotatable_Bonds:                   8
##########                       Formal_Charge:          -0.0200001
##########                     HBond_Acceptors:                   8
##########                        HBond_Donors:                   1
##########                         Heavy_Atoms:                  27
##########                          Grid_Score:          -28.938595
##########                     Grid_vdw_energy:          -29.199022
##########                      Grid_es_energy:            0.260428
##########           Internal_energy_repulsive:           11.074950

@<TRIPOS>MOLECULE
ZINC000182378855
 47 49 1 0 0
SMALL
USER_CHARGES


@<TRIPOS>ATOM
      1 C1         -1.8627    4.5343   53.6738 C.3     1  ZINC000182378855    0.0300
      2 O2         -1.6165    3.4223   54.5368 O.3     1  ZINC000182378855   -0.3900
      3 C3         -1.3420    3.7870   55.8909 C.3     1  ZINC000182378855    0.0600
      4 C4         -2.4642    3.2732   56.7950 C.3     1  ZINC000182378855    0.0700
      5 O5         -3.7161    3.3953   56.1168 O.3     1  ZINC000182378855   -0.2900
      6 C6         -4.8352    3.1299   56.8366 C.ar    1  ZINC000182378855    0.3300
      7 C7         -6.0033    2.7661   56.1800 C.ar    1  ZINC000182378855   -0.1300
      8 C8         -7.1465    2.4962   56.9345 C.ar    1  ZINC000182378855   -0.0600
      9 C9         -8.4158    2.1039   56.2785 C.2     1  ZINC000182378855    0.5600
     10 O10        -9.4078    2.7924   56.4138 O.2     1  ZINC000182378855   -0.5200
     11 N11        -8.4700    0.9834   55.5315 N.am    1  ZINC000182378855   -0.7100
     12 C12        -9.7246    0.5964   54.8814 C.3     1  ZINC000182378855    0.1200
     13 H13       -10.4131    1.4408   54.8491 H       1  ZINC000182378855    0.1100
     14 C14       -10.3690   -0.5999   55.6169 C.3     1  ZINC000182378855   -0.1700
     15 C15       -10.4113   -1.7172   54.5510 C.3     1  ZINC000182378855    0.0400
     16 O16        -9.3676   -1.3730   53.6139 O.3     1  ZINC000182378855   -0.3600
     17 C17        -9.4537    0.0603   53.4582 C.3     1  ZINC000182378855    0.1100
     18 H18       -10.2759    0.3209   52.7917 H       1  ZINC000182378855    0.1000
     19 C19        -8.1538    0.6095   52.9292 C.ar    1  ZINC000182378855   -0.0500
     20 C20        -7.1243   -0.2511   52.5979 C.ar    1  ZINC000182378855   -0.1100
     21 C21        -5.9330    0.2506   52.1072 C.ar    1  ZINC000182378855   -0.0800
     22 C22        -5.7664    1.6151   51.9579 C.ar    1  ZINC000182378855   -0.0700
     23 Cl23       -4.2685    2.2457   51.3479 Cl      1  ZINC000182378855   -0.0400
     24 C24        -6.7964    2.4789   52.2952 C.ar    1  ZINC000182378855    0.1200
     25 F25        -6.6356    3.8124   52.1495 F       1  ZINC000182378855   -0.1200
     26 C26        -7.9901    1.9742   52.7809 C.ar    1  ZINC000182378855   -0.1300
     27 C27        -7.0614    2.6057   58.3269 C.ar    1  ZINC000182378855   -0.1900
     28 C28        -5.8608    2.9734   58.8998 C.ar    1  ZINC000182378855    0.1400
     29 N29        -4.7995    3.2155   58.1553 N.ar    1  ZINC000182378855   -0.5200
     30 H30        -0.9882    5.1847   53.6608 H       1  ZINC000182378855    0.0400
     31 H31        -2.0625    4.1738   52.6647 H       1  ZINC000182378855    0.0900
     32 H32        -2.7254    5.0925   54.0376 H       1  ZINC000182378855    0.0400
     33 H33        -0.3947    3.3460   56.2011 H       1  ZINC000182378855    0.0600
     34 H34        -1.2804    4.8725   55.9695 H       1  ZINC000182378855    0.0700
     35 H35        -2.2837    2.2262   57.0390 H       1  ZINC000182378855    0.0800
     36 H36        -2.4894    3.8609   57.7127 H       1  ZINC000182378855    0.0800
     37 H37        -6.0272    2.6934   55.1027 H       1  ZINC000182378855    0.1600
     38 H38        -7.6785    0.4331   55.4245 H       1  ZINC000182378855    0.4000
     39 H39        -9.7541   -0.9033   56.4642 H       1  ZINC000182378855    0.0900
     40 H40       -11.3770   -0.3477   55.9461 H       1  ZINC000182378855    0.0900
     41 H41       -10.2066   -2.6854   55.0080 H       1  ZINC000182378855    0.1000
     42 H42       -11.3809   -1.7306   54.0535 H       1  ZINC000182378855    0.0700
     43 H43        -7.2519   -1.3167   52.7189 H       1  ZINC000182378855    0.1500
     44 H44        -5.1309   -0.4232   51.8446 H       1  ZINC000182378855    0.1500
     45 H45        -8.7936    2.6463   53.0438 H       1  ZINC000182378855    0.1500
     46 H46        -7.9238    2.4048   58.9452 H       1  ZINC000182378855    0.1400
     47 H47        -5.7882    3.0597   59.9739 H       1  ZINC000182378855    0.1700
@<TRIPOS>BOND
     1     1     2    1
     2     1    30    1
     3     1    31    1
     4     1    32    1
     5     2     3    1
     6     3     4    1
     7     3    33    1
     8     3    34    1
     9     4     5    1
    10     4    35    1
    11     4    36    1
    12     5     6    1
    13     6    29   ar
    14     6     7   ar
    15     7     8   ar
    16     7    37    1
    17     8     9    1
    18     8    27   ar
    19     9    10    2
    20     9    11   am
    21    11    12    1
    22    11    38    1
    23    12    13    1
    24    12    17    1
    25    12    14    1
    26    14    15    1
    27    14    39    1
    28    14    40    1
    29    15    16    1
    30    15    41    1
    31    15    42    1
    32    16    17    1
    33    17    18    1
    34    17    19    1
    35    19    26   ar
    36    19    20   ar
    37    20    21   ar
    38    20    43    1
    39    21    22   ar
    40    21    44    1
    41    22    23    1
    42    22    24   ar
    43    24    25    1
    44    24    26   ar
    45    26    45    1
    46    27    28   ar
    47    27    46    1
    48    28    29   ar
    49    28    47    1
@<TRIPOS>SUBSTRUCTURE
     1 ZINC000182378855        1 TEMP              0 ****  ****    0 ROOT


##########                                Name:    ZINC000545381384
##########                DOCK_Rotatable_Bonds:                   6
##########                         Heavy_Atoms:                  30
##########                    Molecular_Weight:             405.543
##########                DOCK_Rotatable_Bonds:                   6
##########                       Formal_Charge:                0.05
##########                     HBond_Acceptors:                   6
##########                        HBond_Donors:                   1
##########                         Heavy_Atoms:                  30
##########                          Grid_Score:          -28.915564
##########                     Grid_vdw_energy:          -28.414146
##########                      Grid_es_energy:           -0.501417
##########           Internal_energy_repulsive:           17.909946

@<TRIPOS>MOLECULE
ZINC000545381384
 61 64 1 0 0
SMALL
USER_CHARGES


@<TRIPOS>ATOM
      1 C1        -14.2565   -1.0564   55.4911 C.3     1  ZINC000545381384   -0.2000
      2 C2        -12.9071   -1.3015   56.1694 C.3     1  ZINC000545381384    0.0500
      3 N3        -11.8619   -0.5437   55.4685 N.3     1  ZINC000545381384   -0.5300
      4 C4        -11.3730   -1.2824   54.2937 C.3     1  ZINC000545381384    0.0500
      5 C5        -10.5863   -0.3189   53.4056 C.3     1  ZINC000545381384   -0.0700
      6 C6         -9.5546    0.4146   54.2286 C.ar    1  ZINC000545381384    0.1800
      7 C7         -9.6388    0.4556   55.6154 C.ar    1  ZINC000545381384   -0.0800
      8 C8        -10.7481   -0.2287   56.3689 C.3     1  ZINC000545381384    0.0900
      9 C9         -8.6730    1.1449   56.3444 C.ar    1  ZINC000545381384   -0.0700
     10 C10        -8.7372    1.2095   57.8201 C.2     1  ZINC000545381384    0.5800
     11 O11        -9.2074    2.1887   58.3658 O.2     1  ZINC000545381384   -0.4800
     12 N12        -8.2746    0.1826   58.5603 N.am    1  ZINC000545381384   -0.6400
     13 C13        -8.3366    0.2427   59.9510 C.2     1  ZINC000545381384    0.3000
     14 C14        -7.2856    0.4270   60.7969 C.2     1  ZINC000545381384   -0.2700
     15 C15        -7.7815    0.4249   62.1032 C.2     1  ZINC000545381384    0.1000
     16 C16        -6.9629    0.5985   63.3565 C.3     1  ZINC000545381384   -0.0300
     17 C17        -7.3347    1.9214   64.0293 C.3     1  ZINC000545381384   -0.0600
     18 C18        -6.1616    2.4066   64.8833 C.3     1  ZINC000545381384   -0.1500
     19 C19        -7.6525    2.9667   62.9582 C.3     1  ZINC000545381384   -0.1400
     20 C20        -8.5619    1.7138   64.9192 C.3     1  ZINC000545381384   -0.1400
     21 N21        -9.0767    0.2471   62.0540 N.2     1  ZINC000545381384   -0.2700
     22 N22        -9.4572    0.1340   60.7106 N.pl3   1  ZINC000545381384   -0.3900
     23 C23       -10.8198   -0.0734   60.2141 C.3     1  ZINC000545381384    0.1000
     24 C24        -7.6271    1.7819   55.6329 C.ar    1  ZINC000545381384   -0.0700
     25 C25        -6.6176    2.4935   56.2934 C.ar    1  ZINC000545381384   -0.1100
     26 C26        -5.6292    3.0897   55.5691 C.ar    1  ZINC000545381384   -0.1000
     27 C27        -5.6102    3.0010   54.1787 C.ar    1  ZINC000545381384   -0.1000
     28 C28        -6.5758    2.3188   53.5054 C.ar    1  ZINC000545381384   -0.0900
     29 C29        -7.6126    1.6894   54.2191 C.ar    1  ZINC000545381384    0.1400
     30 N30        -8.5726    1.0145   53.5878 N.ar    1  ZINC000545381384   -0.4600
     31 H31       -14.4774    0.0110   55.4966 H       1  ZINC000545381384    0.0600
     32 H32       -14.2162   -1.4138   54.4622 H       1  ZINC000545381384    0.0600
     33 H33       -15.0374   -1.5917   56.0314 H       1  ZINC000545381384    0.0700
     34 H34       -12.9580   -0.9750   57.2082 H       1  ZINC000545381384    0.0900
     35 H35       -12.6706   -2.3649   56.1340 H       1  ZINC000545381384    0.0800
     36 H36       -10.7230   -2.0955   54.6171 H       1  ZINC000545381384    0.0500
     37 H37       -12.2188   -1.6856   53.7369 H       1  ZINC000545381384    0.0900
     38 H38       -10.0870   -0.8804   52.6160 H       1  ZINC000545381384    0.1000
     39 H39       -11.2709    0.4015   52.9579 H       1  ZINC000545381384    0.1000
     40 H40       -11.1021    0.4278   57.1637 H       1  ZINC000545381384    0.0900
     41 H41       -10.3689   -1.1508   56.8095 H       1  ZINC000545381384    0.0700
     42 H42        -7.8983   -0.5983   58.1249 H       1  ZINC000545381384    0.4100
     43 H43        -6.2522    0.5522   60.5092 H       1  ZINC000545381384    0.1700
     44 H44        -7.1655   -0.2261   64.0399 H       1  ZINC000545381384    0.0800
     45 H45        -5.9035    0.6063   63.1004 H       1  ZINC000545381384    0.0800
     46 H46        -5.2874    2.5546   64.2493 H       1  ZINC000545381384    0.0500
     47 H47        -6.4265    3.3491   65.3626 H       1  ZINC000545381384    0.0500
     48 H48        -5.9352    1.6620   65.6464 H       1  ZINC000545381384    0.0800
     49 H49        -8.4882    2.6211   62.3498 H       1  ZINC000545381384    0.0600
     50 H50        -7.9173    3.9092   63.4375 H       1  ZINC000545381384    0.0600
     51 H51        -6.7783    3.1146   62.3242 H       1  ZINC000545381384    0.0600
     52 H52        -8.3354    0.9691   65.6823 H       1  ZINC000545381384    0.0500
     53 H53        -8.8267    2.6562   65.3985 H       1  ZINC000545381384    0.0500
     54 H54        -9.3975    1.3680   64.3108 H       1  ZINC000545381384    0.0500
     55 H55       -11.2957    0.8925   60.0446 H       1  ZINC000545381384    0.0800
     56 H56       -10.7845   -0.6302   59.2777 H       1  ZINC000545381384    0.0800
     57 H57       -11.3930   -0.6367   60.9504 H       1  ZINC000545381384    0.1000
     58 H58        -6.6226    2.5695   57.3707 H       1  ZINC000545381384    0.1300
     59 H59        -4.8512    3.6382   56.0792 H       1  ZINC000545381384    0.1300
     60 H60        -4.8163    3.4818   53.6264 H       1  ZINC000545381384    0.1400
     61 H61        -6.5467    2.2605   52.4274 H       1  ZINC000545381384    0.1400
@<TRIPOS>BOND
     1     1     2    1
     2     1    31    1
     3     1    32    1
     4     1    33    1
     5     2     3    1
     6     2    34    1
     7     2    35    1
     8     3     8    1
     9     3     4    1
    10     4     5    1
    11     4    36    1
    12     4    37    1
    13     5     6    1
    14     5    38    1
    15     5    39    1
    16     6    30   ar
    17     6     7   ar
    18     7     8    1
    19     7     9   ar
    20     8    40    1
    21     8    41    1
    22     9    10    1
    23     9    24   ar
    24    10    11    2
    25    10    12   am
    26    12    13    1
    27    12    42    1
    28    13    22    1
    29    13    14    2
    30    14    15    1
    31    14    43    1
    32    15    16    1
    33    15    21    2
    34    16    17    1
    35    16    44    1
    36    16    45    1
    37    17    18    1
    38    17    19    1
    39    17    20    1
    40    18    46    1
    41    18    47    1
    42    18    48    1
    43    19    49    1
    44    19    50    1
    45    19    51    1
    46    20    52    1
    47    20    53    1
    48    20    54    1
    49    21    22    1
    50    22    23    1
    51    23    55    1
    52    23    56    1
    53    23    57    1
    54    24    29   ar
    55    24    25   ar
    56    25    26   ar
    57    25    58    1
    58    26    27   ar
    59    26    59    1
    60    27    28   ar
    61    27    60    1
    62    28    29   ar
    63    28    61    1
    64    29    30   ar
@<TRIPOS>SUBSTRUCTURE
     1 ZINC000545381384        1 TEMP              0 ****  ****    0 ROOT


##########                                Name:    ZINC000914736341
##########                DOCK_Rotatable_Bonds:                   7
##########                         Heavy_Atoms:                  27
##########                    Molecular_Weight:             384.905
##########                DOCK_Rotatable_Bonds:                   7
##########                       Formal_Charge:                0.02
##########                     HBond_Acceptors:                   5
##########                        HBond_Donors:                   1
##########                         Heavy_Atoms:                  27
##########                          Grid_Score:          -28.909622
##########                     Grid_vdw_energy:          -28.886578
##########                      Grid_es_energy:           -0.023044
##########           Internal_energy_repulsive:           27.232998

@<TRIPOS>MOLECULE
ZINC000914736341
 52 54 1 0 0
SMALL
USER_CHARGES


@<TRIPOS>ATOM
      1 C1          0.2466    4.4271   58.8304 C.3     1  ZINC000914736341   -0.1400
      2 C2          0.5085    3.5630   57.5952 C.3     1  ZINC000914736341   -0.0300
      3 C3         -0.4729    2.3894   57.5764 C.3     1  ZINC000914736341   -0.1400
      4 C4          0.3187    4.4068   56.3331 C.3     1  ZINC000914736341    0.1300
      5 N5         -1.0919    4.7799   56.2026 N.am    1  ZINC000914736341   -0.7200
      6 C6         -1.8227    4.3039   55.1750 C.2     1  ZINC000914736341    0.5300
      7 O7         -1.3121    3.5678   54.3576 O.2     1  ZINC000914736341   -0.5300
      8 C8         -3.2742    4.6863   55.0418 C.3     1  ZINC000914736341   -0.1200
      9 H9         -3.4125    5.7528   55.2196 H       1  ZINC000914736341    0.1200
     10 C10        -4.1572    3.8475   55.9945 C.3     1  ZINC000914736341   -0.1400
     11 C11        -5.4226    3.5976   55.2039 C.2     1  ZINC000914736341    0.5200
     12 O12        -6.4745    3.2226   55.6770 O.2     1  ZINC000914736341   -0.5200
     13 N13        -5.2115    3.8522   53.9010 N.am    1  ZINC000914736341   -0.6100
     14 C14        -6.2311    3.7204   52.8574 C.3     1  ZINC000914736341    0.1600
     15 C15        -6.6792    2.2841   52.7713 C.ar    1  ZINC000914736341   -0.1000
     16 C16        -7.8665    1.8941   53.3610 C.ar    1  ZINC000914736341   -0.0800
     17 C17        -8.2778    0.5765   53.2822 C.ar    1  ZINC000914736341   -0.1100
     18 C18        -7.5015   -0.3516   52.6140 C.ar    1  ZINC000914736341   -0.1000
     19 C19        -6.3136    0.0373   52.0236 C.ar    1  ZINC000914736341   -0.1100
     20 C20        -5.9047    1.3568   52.0969 C.ar    1  ZINC000914736341   -0.0300
     21 Cl21       -4.4130    1.8459   51.3557 Cl      1  ZINC000914736341   -0.0600
     22 C22        -3.8282    4.2802   53.6581 C.3     1  ZINC000914736341    0.1000
     23 C23         1.9199    3.0369   57.6401 C.ar    1  ZINC000914736341   -0.0700
     24 C24         2.2131    1.9068   58.3801 C.ar    1  ZINC000914736341   -0.1200
     25 C25         3.5078    1.4242   58.4214 C.ar    1  ZINC000914736341   -0.1200
     26 C26         4.5093    2.0716   57.7222 C.ar    1  ZINC000914736341   -0.1200
     27 C27         4.2159    3.2012   56.9814 C.ar    1  ZINC000914736341   -0.1200
     28 C28         2.9204    3.6813   56.9368 C.ar    1  ZINC000914736341   -0.1100
     29 H29         0.3818    3.8260   59.7296 H       1  ZINC000914736341    0.0600
     30 H30         0.9458    5.2632   58.8437 H       1  ZINC000914736341    0.0600
     31 H31        -0.7742    4.8077   58.7978 H       1  ZINC000914736341    0.0600
     32 H32        -1.4938    2.7700   57.5438 H       1  ZINC000914736341    0.0600
     33 H33        -0.2865    1.7739   56.6963 H       1  ZINC000914736341    0.0600
     34 H34        -0.3378    1.7883   58.4756 H       1  ZINC000914736341    0.0600
     35 H35         0.9280    5.3079   56.4034 H       1  ZINC000914736341    0.0700
     36 H36         0.6239    3.8291   55.4606 H       1  ZINC000914736341    0.0700
     37 H37        -1.5000    5.3696   56.8558 H       1  ZINC000914736341    0.4000
     38 H38        -3.6670    2.9048   56.2379 H       1  ZINC000914736341    0.1100
     39 H39        -4.3790    4.4087   56.9022 H       1  ZINC000914736341    0.1100
     40 H40        -7.0845    4.3533   53.1012 H       1  ZINC000914736341    0.1000
     41 H41        -5.8123    4.0284   51.8993 H       1  ZINC000914736341    0.1000
     42 H42        -8.4731    2.6187   53.8839 H       1  ZINC000914736341    0.1400
     43 H43        -9.2058    0.2722   53.7432 H       1  ZINC000914736341    0.1300
     44 H44        -7.8229   -1.3809   52.5533 H       1  ZINC000914736341    0.1300
     45 H45        -5.7071   -0.6879   51.5015 H       1  ZINC000914736341    0.1400
     46 H46        -3.8109    5.1325   52.9788 H       1  ZINC000914736341    0.1000
     47 H47        -3.2453    3.4565   53.2461 H       1  ZINC000914736341    0.0900
     48 H48         1.4306    1.4010   58.9264 H       1  ZINC000914736341    0.1300
     49 H49         3.7369    0.5416   59.0001 H       1  ZINC000914736341    0.1200
     50 H50         5.5210    1.6949   57.7550 H       1  ZINC000914736341    0.1200
     51 H51         4.9985    3.7071   56.4355 H       1  ZINC000914736341    0.1200
     52 H52         2.6913    4.5638   56.3579 H       1  ZINC000914736341    0.1200
@<TRIPOS>BOND
     1     1     2    1
     2     1    29    1
     3     1    30    1
     4     1    31    1
     5     2     3    1
     6     2     4    1
     7     2    23    1
     8     3    32    1
     9     3    33    1
    10     3    34    1
    11     4     5    1
    12     4    35    1
    13     4    36    1
    14     5     6   am
    15     5    37    1
    16     6     7    2
    17     6     8    1
    18     8     9    1
    19     8    22    1
    20     8    10    1
    21    10    11    1
    22    10    38    1
    23    10    39    1
    24    11    12    2
    25    11    13   am
    26    13    14    1
    27    13    22    1
    28    14    15    1
    29    14    40    1
    30    14    41    1
    31    15    20   ar
    32    15    16   ar
    33    16    17   ar
    34    16    42    1
    35    17    18   ar
    36    17    43    1
    37    18    19   ar
    38    18    44    1
    39    19    20   ar
    40    19    45    1
    41    20    21    1
    42    22    46    1
    43    22    47    1
    44    23    28   ar
    45    23    24   ar
    46    24    25   ar
    47    24    48    1
    48    25    26   ar
    49    25    49    1
    50    26    27   ar
    51    26    50    1
    52    27    28   ar
    53    27    51    1
    54    28    52    1
@<TRIPOS>SUBSTRUCTURE
     1 ZINC000914736341        1 TEMP              0 ****  ****    0 ROOT


##########                                Name:    ZINC000555499135
##########                DOCK_Rotatable_Bonds:                   8
##########                         Heavy_Atoms:                  26
##########                    Molecular_Weight:             377.554
##########                DOCK_Rotatable_Bonds:                   8
##########                       Formal_Charge:           0.0399999
##########                     HBond_Acceptors:                   7
##########                        HBond_Donors:                   0
##########                         Heavy_Atoms:                  26
##########                          Grid_Score:          -28.909069
##########                     Grid_vdw_energy:          -27.877321
##########                      Grid_es_energy:           -1.031748
##########           Internal_energy_repulsive:           10.212034

@<TRIPOS>MOLECULE
ZINC000555499135
 57 59 1 0 0
SMALL
USER_CHARGES


@<TRIPOS>ATOM
      1 C1         -7.2078    0.2362   63.1652 C.3     1  ZINC000555499135   -0.1500
      2 C2         -7.5141    1.1790   61.9998 C.3     1  ZINC000555499135   -0.0500
      3 C3         -8.2155    0.4149   60.9065 C.2     1  ZINC000555499135   -0.2100
      4 C4         -7.6266   -0.2193   59.8883 C.2     1  ZINC000555499135    0.0300
      5 N5         -8.4605   -0.8165   59.0608 N.2     1  ZINC000555499135   -0.4500
      6 C6         -9.7199   -0.7214   59.3245 C.2     1  ZINC000555499135    0.0400
      7 C7        -10.8225   -1.3337   58.4996 C.3     1  ZINC000555499135    0.1500
      8 N8        -10.2774   -1.7874   57.2131 N.3     1  ZINC000555499135   -0.4500
      9 C9         -9.9986   -3.2295   57.2388 C.3     1  ZINC000555499135    0.0100
     10 C10       -11.1315   -1.4653   56.1704 C.2     1  ZINC000555499135    0.3500
     11 N11       -12.4348   -1.6167   56.1545 N.2     1  ZINC000555499135   -0.3100
     12 N12       -12.9075   -1.2138   55.0293 N.2     1  ZINC000555499135   -0.2900
     13 C13       -11.9419   -0.7849   54.2669 C.2     1  ZINC000555499135    0.2100
     14 C14       -12.0836   -0.2309   52.8726 C.3     1  ZINC000555499135   -0.0300
     15 C15       -13.5633    0.0109   52.5678 C.3     1  ZINC000555499135   -0.0900
     16 C16       -14.0154    1.3116   53.2345 C.3     1  ZINC000555499135   -0.1500
     17 C17       -13.7616    0.1177   51.0545 C.3     1  ZINC000555499135   -0.1500
     18 N18       -10.7767   -0.9251   54.9686 N.pl3   1  ZINC000555499135   -0.4600
     19 C19        -9.4265   -0.5758   54.5200 C.3     1  ZINC000555499135    0.1100
     20 C20        -9.0877    0.8436   54.9794 C.3     1  ZINC000555499135    0.0700
     21 H21       -10.0092    1.4006   55.1488 H       1  ZINC000555499135    0.0700
     22 C22        -8.2582    1.5450   53.9006 C.3     1  ZINC000555499135   -0.1500
     23 C23        -7.8723    2.9433   54.3929 C.3     1  ZINC000555499135   -0.1200
     24 C24        -7.1138    2.8150   55.7175 C.3     1  ZINC000555499135   -0.1600
     25 C25        -7.9875    2.0645   56.7261 C.3     1  ZINC000555499135    0.0600
     26 O26        -8.3363    0.7852   56.1935 O.3     1  ZINC000555499135   -0.3700
     27 S27        -9.9564    0.1934   60.7494 S.3     1  ZINC000555499135    0.1200
     28 H28        -8.1390   -0.1783   63.5515 H       1  ZINC000555499135    0.0600
     29 H29        -6.5658   -0.5735   62.8185 H       1  ZINC000555499135    0.0600
     30 H30        -6.7006    0.7889   63.9560 H       1  ZINC000555499135    0.0700
     31 H31        -8.1561    1.9887   62.3466 H       1  ZINC000555499135    0.0900
     32 H32        -6.5830    1.5936   61.6136 H       1  ZINC000555499135    0.0800
     33 H33        -6.5552   -0.2406   59.7544 H       1  ZINC000555499135    0.1800
     34 H34       -11.2473   -2.1833   59.0341 H       1  ZINC000555499135    0.0800
     35 H35       -11.5998   -0.5902   58.3228 H       1  ZINC000555499135    0.1200
     36 H36       -10.9362   -3.7795   57.3192 H       1  ZINC000555499135    0.0500
     37 H37        -9.4863   -3.5169   56.3205 H       1  ZINC000555499135    0.0800
     38 H38        -9.3662   -3.4621   58.0956 H       1  ZINC000555499135    0.0900
     39 H39       -11.5388    0.7103   52.7985 H       1  ZINC000555499135    0.1000
     40 H40       -11.6766   -0.9437   52.1553 H       1  ZINC000555499135    0.1000
     41 H41       -14.1542   -0.8198   52.9540 H       1  ZINC000555499135    0.0800
     42 H42       -13.8371    1.2508   54.3081 H       1  ZINC000555499135    0.0500
     43 H43       -13.4522    2.1475   52.8194 H       1  ZINC000555499135    0.0600
     44 H44       -15.0791    1.4634   53.0509 H       1  ZINC000555499135    0.0600
     45 H45       -13.4395   -0.8091   50.5796 H       1  ZINC000555499135    0.0600
     46 H46       -14.8157    0.2899   50.8374 H       1  ZINC000555499135    0.0600
     47 H47       -13.1706    0.9483   50.6684 H       1  ZINC000555499135    0.0600
     48 H48        -8.7092   -1.2768   54.9469 H       1  ZINC000555499135    0.1100
     49 H49        -9.3806   -0.6264   53.4322 H       1  ZINC000555499135    0.1200
     50 H50        -7.3558    0.9669   53.7017 H       1  ZINC000555499135    0.0800
     51 H51        -8.8463    1.6301   52.9868 H       1  ZINC000555499135    0.0800
     52 H52        -7.2346    3.4272   53.6530 H       1  ZINC000555499135    0.0700
     53 H53        -8.7731    3.5380   54.5446 H       1  ZINC000555499135    0.0600
     54 H54        -6.1884    2.2624   55.5553 H       1  ZINC000555499135    0.0700
     55 H55        -6.8835    3.8081   56.1031 H       1  ZINC000555499135    0.0800
     56 H56        -7.4363    1.9327   57.6571 H       1  ZINC000555499135    0.1000
     57 H57        -8.8946    2.6375   56.9184 H       1  ZINC000555499135    0.0500
@<TRIPOS>BOND
     1     1     2    1
     2     1    28    1
     3     1    29    1
     4     1    30    1
     5     2     3    1
     6     2    31    1
     7     2    32    1
     8     3    27    1
     9     3     4    2
    10     4     5    1
    11     4    33    1
    12     5     6    2
    13     6     7    1
    14     6    27    1
    15     7     8    1
    16     7    34    1
    17     7    35    1
    18     8     9    1
    19     8    10    1
    20     9    36    1
    21     9    37    1
    22     9    38    1
    23    10    18    1
    24    10    11    2
    25    11    12    1
    26    12    13    2
    27    13    14    1
    28    13    18    1
    29    14    15    1
    30    14    39    1
    31    14    40    1
    32    15    16    1
    33    15    17    1
    34    15    41    1
    35    16    42    1
    36    16    43    1
    37    16    44    1
    38    17    45    1
    39    17    46    1
    40    17    47    1
    41    18    19    1
    42    19    20    1
    43    19    48    1
    44    19    49    1
    45    20    21    1
    46    20    26    1
    47    20    22    1
    48    22    23    1
    49    22    50    1
    50    22    51    1
    51    23    24    1
    52    23    52    1
    53    23    53    1
    54    24    25    1
    55    24    54    1
    56    24    55    1
    57    25    26    1
    58    25    56    1
    59    25    57    1
@<TRIPOS>SUBSTRUCTURE
     1 ZINC000555499135        1 TEMP              0 ****  ****    0 ROOT


##########                                Name:    ZINC001000186632
##########                DOCK_Rotatable_Bonds:                   7
##########                         Heavy_Atoms:                  23
##########                    Molecular_Weight:             342.379
##########                DOCK_Rotatable_Bonds:                   7
##########                       Formal_Charge:          -0.0100001
##########                     HBond_Acceptors:                  11
##########                        HBond_Donors:                   2
##########                         Heavy_Atoms:                  23
##########                          Grid_Score:          -28.891163
##########                     Grid_vdw_energy:          -26.942959
##########                      Grid_es_energy:           -1.948204
##########           Internal_energy_repulsive:            5.646898

@<TRIPOS>MOLECULE
ZINC001000186632
 41 43 1 0 0
SMALL
USER_CHARGES


@<TRIPOS>ATOM
      1 O1         -9.5663    2.3398   57.6511 O.2     1  ZINC001000186632   -0.5200
      2 C2         -8.8265    1.4179   57.9229 C.2     1  ZINC001000186632    0.5300
      3 C3         -7.7617    1.5913   58.9751 C.3     1  ZINC001000186632   -0.0500
      4 C4         -6.5506    2.2451   58.3611 C.2     1  ZINC001000186632    0.2400
      5 N5         -5.7612    3.0969   58.9611 N.2     1  ZINC001000186632   -0.3000
      6 N6         -4.7680    3.4522   58.0338 N.pl3   1  ZINC001000186632   -0.4800
      7 C7         -5.0387    2.7684   56.9086 C.2     1  ZINC001000186632    0.2700
      8 N8         -6.1076    2.0444   57.1207 N.2     1  ZINC001000186632   -0.5400
      9 N9         -8.9605    0.2366   57.2880 N.am    1  ZINC001000186632   -0.7100
     10 C10        -9.9956    0.0680   56.2652 C.3     1  ZINC001000186632    0.1100
     11 C11       -10.1873   -1.3907   55.8118 C.3     1  ZINC001000186632    0.1000
     12 N12       -11.1980   -1.4853   56.8831 N.am    1  ZINC001000186632   -0.6500
     13 C13       -11.7106   -2.4969   57.6114 C.2     1  ZINC001000186632    0.5100
     14 O14       -11.3264   -3.6325   57.4267 O.2     1  ZINC001000186632   -0.5100
     15 C15       -12.7610   -2.2172   58.6550 C.3     1  ZINC001000186632    0.1500
     16 N16       -14.0902   -2.3010   58.0448 N.am    1  ZINC001000186632   -0.9800
     17 C17       -14.7507   -1.2550   57.2495 C.3     1  ZINC001000186632    0.0800
     18 C18       -15.7097   -1.8935   56.2266 C.3     1  ZINC001000186632   -0.1300
     19 C19       -16.4762   -2.9750   57.0416 C.3     1  ZINC001000186632   -0.6000
     20 S20       -15.1314   -3.6047   58.1180 S.o2    1  ZINC001000186632    2.5700
     21 O21       -14.4357   -4.6779   57.4986 O.2     1  ZINC001000186632   -0.9400
     22 O22       -15.5447   -3.6655   59.4762 O.2     1  ZINC001000186632   -0.9600
     23 C23       -11.4219   -0.0274   56.8367 C.3     1  ZINC001000186632    0.0900
     24 H24        -8.1447    2.2190   59.7797 H       1  ZINC001000186632    0.1300
     25 H25        -7.4843    0.6162   59.3755 H       1  ZINC001000186632    0.1200
     26 H26        -4.0330    4.0688   58.1769 H       1  ZINC001000186632    0.4400
     27 H27        -4.4707    2.8072   55.9907 H       1  ZINC001000186632    0.2200
     28 H28        -8.3713   -0.5019   57.5082 H       1  ZINC001000186632    0.4100
     29 H29        -9.8992    0.7761   55.4421 H       1  ZINC001000186632    0.1200
     30 H30       -10.6008   -1.4880   54.8079 H       1  ZINC001000186632    0.1000
     31 H31        -9.3129   -2.0203   55.9759 H       1  ZINC001000186632    0.0900
     32 H32       -12.6821   -2.9522   59.4561 H       1  ZINC001000186632    0.1100
     33 H33       -12.6109   -1.2176   59.0629 H       1  ZINC001000186632    0.1100
     34 H34       -15.3146   -0.5989   57.9126 H       1  ZINC001000186632    0.0800
     35 H35       -13.9960   -0.6717   56.7220 H       1  ZINC001000186632    0.0900
     36 H36       -16.4024   -1.1479   55.8366 H       1  ZINC001000186632    0.1100
     37 H37       -15.1482   -2.3552   55.4144 H       1  ZINC001000186632    0.1000
     38 H38       -17.2792   -2.5295   57.6289 H       1  ZINC001000186632    0.1400
     39 H39       -16.8572   -3.7618   56.3905 H       1  ZINC001000186632    0.1400
     40 H40       -11.5331    0.4315   57.8191 H       1  ZINC001000186632    0.0900
     41 H41       -12.1980    0.2758   56.1340 H       1  ZINC001000186632    0.1100
@<TRIPOS>BOND
     1     1     2    2
     2     2     3    1
     3     2     9   am
     4     3     4    1
     5     3    24    1
     6     3    25    1
     7     4     8    1
     8     4     5    2
     9     5     6    1
    10     6     7    1
    11     6    26    1
    12     7     8    2
    13     7    27    1
    14     9    10    1
    15     9    28    1
    16    10    23    1
    17    10    11    1
    18    10    29    1
    19    11    12    1
    20    11    30    1
    21    11    31    1
    22    12    13   am
    23    12    23    1
    24    13    14    2
    25    13    15    1
    26    15    16    1
    27    15    32    1
    28    15    33    1
    29    16    20   am
    30    16    17    1
    31    17    18    1
    32    17    34    1
    33    17    35    1
    34    18    19    1
    35    18    36    1
    36    18    37    1
    37    19    20    1
    38    19    38    1
    39    19    39    1
    40    20    21    2
    41    20    22    2
    42    23    40    1
    43    23    41    1
@<TRIPOS>SUBSTRUCTURE
     1 ZINC001000186632        1 TEMP              0 ****  ****    0 ROOT


##########                                Name:    ZINC000885154703
##########                DOCK_Rotatable_Bonds:                   5
##########                         Heavy_Atoms:                  24
##########                    Molecular_Weight:             396.259
##########                DOCK_Rotatable_Bonds:                   5
##########                       Formal_Charge:          -0.0099998
##########                     HBond_Acceptors:                   6
##########                        HBond_Donors:                   1
##########                         Heavy_Atoms:                  24
##########                          Grid_Score:          -28.878658
##########                     Grid_vdw_energy:          -28.730141
##########                      Grid_es_energy:           -0.148518
##########           Internal_energy_repulsive:            8.140347

@<TRIPOS>MOLECULE
ZINC000885154703
 43 45 1 0 0
SMALL
USER_CHARGES


@<TRIPOS>ATOM
      1 C1        -13.7380   -0.1306   52.9799 C.3     1  ZINC000885154703   -0.1500
      2 C2        -12.2753    0.0083   52.5531 C.3     1  ZINC000885154703   -0.0300
      3 C3        -11.4049   -0.8148   53.4673 C.2     1  ZINC000885154703    0.1700
      4 N4        -10.2731   -1.3719   53.1559 N.2     1  ZINC000885154703   -0.3800
      5 O5         -9.8194   -1.9643   54.1123 O.3     1  ZINC000885154703    0.0800
      6 C6        -10.6438   -1.8373   55.1564 C.2     1  ZINC000885154703    0.1800
      7 C7        -10.4472   -2.4218   56.5314 C.3     1  ZINC000885154703    0.0000
      8 H8         -9.8721   -3.3455   56.4654 H       1  ZINC000885154703    0.1300
      9 C9        -11.8151   -2.6970   57.1893 C.3     1  ZINC000885154703   -0.1200
     10 C10       -11.5958   -2.3474   58.6823 C.3     1  ZINC000885154703   -0.1300
     11 C11       -10.6718   -1.1064   58.6105 C.3     1  ZINC000885154703    0.1400
     12 H12       -11.2548   -0.2081   58.4068 H       1  ZINC000885154703    0.1000
     13 N13        -9.9185   -0.9554   59.8579 N.am    1  ZINC000885154703   -0.7100
     14 C14        -9.4538    0.2562   60.2220 C.2     1  ZINC000885154703    0.5700
     15 O15        -9.6585    1.2235   59.5147 O.2     1  ZINC000885154703   -0.5100
     16 C16        -8.6957    0.4087   61.4804 C.ar    1  ZINC000885154703   -0.1600
     17 C17        -7.3170    0.1774   61.5024 C.ar    1  ZINC000885154703    0.1500
     18 F18        -6.6729   -0.1867   60.3720 F       1  ZINC000885154703   -0.1200
     19 C19        -6.6143    0.3229   62.6850 C.ar    1  ZINC000885154703   -0.1500
     20 C20        -7.2726    0.6952   63.8416 C.ar    1  ZINC000885154703   -0.0400
     21 C21        -8.6385    0.9258   63.8259 C.ar    1  ZINC000885154703   -0.1100
     22 Br22       -9.5269    1.4347   65.4157 Br      1  ZINC000885154703   -0.0300
     23 C23        -9.3515    0.7902   62.6529 C.ar    1  ZINC000885154703    0.0100
     24 C24       -10.8372    1.0422   62.6390 C.3     1  ZINC000885154703   -0.1300
     25 C25        -9.7191   -1.4110   57.4347 C.3     1  ZINC000885154703   -0.1300
     26 N26       -11.6541   -1.1027   54.7572 N.2     1  ZINC000885154703   -0.4800
     27 H27       -14.0361   -1.1773   52.9200 H       1  ZINC000885154703    0.0600
     28 H28       -13.8524    0.2218   54.0049 H       1  ZINC000885154703    0.0600
     29 H29       -14.3676    0.4648   52.3186 H       1  ZINC000885154703    0.0700
     30 H30       -12.1610   -0.3440   51.5279 H       1  ZINC000885154703    0.1000
     31 H31       -11.9772    1.0551   52.6128 H       1  ZINC000885154703    0.0900
     32 H32       -12.5827   -2.0555   56.7561 H       1  ZINC000885154703    0.0800
     33 H33       -12.0872   -3.7467   57.0792 H       1  ZINC000885154703    0.0900
     34 H34       -12.5414   -2.0978   59.1635 H       1  ZINC000885154703    0.0800
     35 H35       -11.1012   -3.1677   59.2024 H       1  ZINC000885154703    0.0800
     36 H36        -9.7540   -1.7274   60.4216 H       1  ZINC000885154703    0.4000
     37 H37        -5.5492    0.1448   62.7045 H       1  ZINC000885154703    0.1500
     38 H38        -6.7194    0.8068   64.7624 H       1  ZINC000885154703    0.1500
     39 H39       -11.0255    2.0929   62.4181 H       1  ZINC000885154703    0.0900
     40 H40       -11.3040    0.4209   61.8747 H       1  ZINC000885154703    0.0800
     41 H41       -11.2567    0.7953   63.6142 H       1  ZINC000885154703    0.0900
     42 H42        -8.7912   -1.8436   57.8086 H       1  ZINC000885154703    0.0900
     43 H43        -9.5084   -0.4976   56.8786 H       1  ZINC000885154703    0.0800
@<TRIPOS>BOND
     1     1     2    1
     2     1    27    1
     3     1    28    1
     4     1    29    1
     5     2     3    1
     6     2    30    1
     7     2    31    1
     8     3    26    1
     9     3     4    2
    10     4     5    1
    11     5     6    1
    12     6     7    1
    13     6    26    2
    14     7     8    1
    15     7    25    1
    16     7     9    1
    17     9    10    1
    18     9    32    1
    19     9    33    1
    20    10    11    1
    21    10    34    1
    22    10    35    1
    23    11    12    1
    24    11    13    1
    25    11    25    1
    26    13    14   am
    27    13    36    1
    28    14    15    2
    29    14    16    1
    30    16    23   ar
    31    16    17   ar
    32    17    18    1
    33    17    19   ar
    34    19    20   ar
    35    19    37    1
    36    20    21   ar
    37    20    38    1
    38    21    22    1
    39    21    23   ar
    40    23    24    1
    41    24    39    1
    42    24    40    1
    43    24    41    1
    44    25    42    1
    45    25    43    1
@<TRIPOS>SUBSTRUCTURE
     1 ZINC000885154703        1 TEMP              0 ****  ****    0 ROOT


##########                                Name:    ZINC001356153960
##########                DOCK_Rotatable_Bonds:                   8
##########                         Heavy_Atoms:                  24
##########                    Molecular_Weight:             334.366
##########                DOCK_Rotatable_Bonds:                   8
##########                       Formal_Charge:           0.0100003
##########                     HBond_Acceptors:                   6
##########                        HBond_Donors:                   1
##########                         Heavy_Atoms:                  24
##########                          Grid_Score:          -28.877174
##########                     Grid_vdw_energy:          -27.516514
##########                      Grid_es_energy:           -1.360661
##########           Internal_energy_repulsive:           15.986179

@<TRIPOS>MOLECULE
ZINC001356153960
 44 46 1 0 0
SMALL
USER_CHARGES


@<TRIPOS>ATOM
      1 O1         -4.3715    4.9048   56.6711 O.2     1  ZINC001356153960   -0.5200
      2 C2         -4.1850    3.7227   56.4700 C.2     1  ZINC001356153960    0.5100
      3 N3         -2.9376    3.2165   56.5367 N.am    1  ZINC001356153960   -0.7000
      4 C4         -1.8079    4.0921   56.8581 C.3     1  ZINC001356153960    0.1300
      5 C5         -0.5117    3.4613   56.3454 C.3     1  ZINC001356153960   -0.0800
      6 H6         -0.5425    3.3607   55.2605 H       1  ZINC001356153960    0.0900
      7 C7          0.6792    4.2920   56.7635 C.2     1  ZINC001356153960   -0.1700
      8 C8          1.6421    3.5374   57.2186 C.2     1  ZINC001356153960   -0.1600
      9 C9          1.2538    2.0776   57.1799 C.3     1  ZINC001356153960   -0.1000
     10 C10        -0.2848    2.0827   57.0079 C.3     1  ZINC001356153960   -0.1200
     11 C11        -5.3373    2.8294   56.1422 C.2     1  ZINC001356153960    0.5100
     12 O12        -5.7017    1.9914   56.9406 O.2     1  ZINC001356153960   -0.5100
     13 N13        -5.9718    2.9546   54.9597 N.am    1  ZINC001356153960   -0.5500
     14 C14        -5.5319    3.9663   53.9957 C.3     1  ZINC001356153960    0.1300
     15 C15        -4.6048    3.3330   52.9907 C.ar    1  ZINC001356153960   -0.1600
     16 C16        -3.2383    3.4991   53.1108 C.ar    1  ZINC001356153960   -0.0300
     17 C17        -2.3864    2.9140   52.1928 C.ar    1  ZINC001356153960   -0.1700
     18 C18        -2.9021    2.1702   51.1452 C.ar    1  ZINC001356153960    0.1400
     19 F19        -2.0696    1.6027   50.2451 F       1  ZINC001356153960   -0.1300
     20 C20        -4.2714    2.0078   51.0205 C.ar    1  ZINC001356153960   -0.2000
     21 C21        -5.1230    2.5893   51.9434 C.ar    1  ZINC001356153960    0.1500
     22 F22        -6.4593    2.4319   51.8228 F       1  ZINC001356153960   -0.1200
     23 C23        -7.1014    2.0788   54.6382 C.3     1  ZINC001356153960    0.0700
     24 C24        -8.4293    2.7445   54.2714 C.3     1  ZINC001356153960   -0.1900
     25 C25        -8.2714    2.0443   55.6235 C.3     1  ZINC001356153960   -0.1800
     26 H26        -2.7879    2.2724   56.3720 H       1  ZINC001356153960    0.4100
     27 H27        -1.9531    5.0620   56.3821 H       1  ZINC001356153960    0.0800
     28 H28        -1.7457    4.2233   57.9384 H       1  ZINC001356153960    0.0800
     29 H29         0.7272    5.3687   56.6951 H       1  ZINC001356153960    0.1200
     30 H30         2.5914    3.9077   57.5762 H       1  ZINC001356153960    0.1300
     31 H31         1.7273    1.5811   56.3329 H       1  ZINC001356153960    0.0800
     32 H32         1.5326    1.5857   58.1118 H       1  ZINC001356153960    0.0700
     33 H33        -0.7863    2.0254   57.9740 H       1  ZINC001356153960    0.0800
     34 H34        -0.6096    1.2750   56.3518 H       1  ZINC001356153960    0.0800
     35 H35        -6.3993    4.3787   53.4805 H       1  ZINC001356153960    0.0900
     36 H36        -5.0077    4.7647   54.5209 H       1  ZINC001356153960    0.1400
     37 H37        -2.8353    4.0832   53.9250 H       1  ZINC001356153960    0.1600
     38 H38        -1.3183    3.0412   52.2901 H       1  ZINC001356153960    0.1400
     39 H39        -4.6746    1.4280   50.2034 H       1  ZINC001356153960    0.1500
     40 H40        -6.8459    1.1503   54.1275 H       1  ZINC001356153960    0.1400
     41 H41        -8.4625    3.8340   54.2693 H       1  ZINC001356153960    0.1400
     42 H42        -9.0476    2.2537   53.5198 H       1  ZINC001356153960    0.0900
     43 H43        -8.7859    1.0932   55.7607 H       1  ZINC001356153960    0.1000
     44 H44        -8.2007    2.6733   56.5109 H       1  ZINC001356153960    0.0900
@<TRIPOS>BOND
     1     1     2    2
     2     2     3   am
     3     2    11    1
     4     3     4    1
     5     3    26    1
     6     4     5    1
     7     4    27    1
     8     4    28    1
     9     5     6    1
    10     5    10    1
    11     5     7    1
    12     7     8    2
    13     7    29    1
    14     8     9    1
    15     8    30    1
    16     9    10    1
    17     9    31    1
    18     9    32    1
    19    10    33    1
    20    10    34    1
    21    11    12    2
    22    11    13   am
    23    13    14    1
    24    13    23    1
    25    14    15    1
    26    14    35    1
    27    14    36    1
    28    15    21   ar
    29    15    16   ar
    30    16    17   ar
    31    16    37    1
    32    17    18   ar
    33    17    38    1
    34    18    19    1
    35    18    20   ar
    36    20    21   ar
    37    20    39    1
    38    21    22    1
    39    23    25    1
    40    23    24    1
    41    23    40    1
    42    24    25    1
    43    24    41    1
    44    24    42    1
    45    25    43    1
    46    25    44    1
@<TRIPOS>SUBSTRUCTURE
     1 ZINC001356153960        1 TEMP              0 ****  ****    0 ROOT


##########                                Name:    ZINC001492779707
##########                DOCK_Rotatable_Bonds:                   8
##########                         Heavy_Atoms:                  27
##########                    Molecular_Weight:             374.483
##########                DOCK_Rotatable_Bonds:                   8
##########                       Formal_Charge:           0.0199998
##########                     HBond_Acceptors:                   7
##########                        HBond_Donors:                   0
##########                         Heavy_Atoms:                  27
##########                          Grid_Score:          -28.851950
##########                     Grid_vdw_energy:          -29.277161
##########                      Grid_es_energy:            0.425211
##########           Internal_energy_repulsive:           10.883230

@<TRIPOS>MOLECULE
ZINC001492779707
 57 59 1 0 0
SMALL
USER_CHARGES


@<TRIPOS>ATOM
      1 C1        -13.8065   -1.8937   58.1482 C.3     1  ZINC001492779707   -0.0700
      2 C2        -13.2254   -1.4916   56.8173 C.2     1  ZINC001492779707    0.1800
      3 N3        -13.8927   -1.2502   55.7245 N.2     1  ZINC001492779707   -0.2900
      4 N4        -13.0853   -0.9331   54.7760 N.2     1  ZINC001492779707   -0.3100
      5 C5        -11.8495   -0.9553   55.2165 C.2     1  ZINC001492779707    0.3400
      6 N6        -10.7084   -0.6701   54.4836 N.3     1  ZINC001492779707   -0.4600
      7 C7        -10.5936   -1.5602   53.3205 C.3     1  ZINC001492779707    0.0300
      8 C8        -10.6859    0.7397   54.0717 C.3     1  ZINC001492779707    0.1100
      9 C9         -9.3894    1.3705   54.5102 C.ar    1  ZINC001492779707   -0.0400
     10 C10        -9.3513    2.1480   55.6527 C.ar    1  ZINC001492779707   -0.1300
     11 C11        -8.1631    2.7282   56.0577 C.ar    1  ZINC001492779707   -0.0800
     12 C12        -7.0113    2.5322   55.3213 C.ar    1  ZINC001492779707   -0.2100
     13 C13        -7.0469    1.7523   54.1742 C.ar    1  ZINC001492779707    0.1300
     14 O14        -5.9147    1.5575   53.4480 O.3     1  ZINC001492779707   -0.3100
     15 C15        -5.8519    2.1821   52.1643 C.3     1  ZINC001492779707    0.0800
     16 C16        -5.9829    3.6978   52.3277 C.3     1  ZINC001492779707   -0.1500
     17 C17        -4.5120    1.8544   51.5026 C.3     1  ZINC001492779707   -0.1800
     18 C18        -8.2387    1.1668   53.7731 C.ar    1  ZINC001492779707   -0.1400
     19 N19       -11.9005   -1.3065   56.5340 N.pl3   1  ZINC001492779707   -0.4600
     20 C20       -10.7696   -1.4626   57.4523 C.3     1  ZINC001492779707    0.1200
     21 C21       -10.6797   -0.2370   58.3637 C.3     1  ZINC001492779707   -0.1200
     22 C22        -9.6324   -0.4858   59.4510 C.3     1  ZINC001492779707    0.0600
     23 H23        -9.9358   -1.3363   60.0614 H       1  ZINC001492779707    0.0800
     24 C24        -8.2783   -0.7806   58.7992 C.3     1  ZINC001492779707    0.0300
     25 O25        -7.2826   -0.9013   59.8196 O.3     1  ZINC001492779707   -0.3800
     26 C26        -7.1634    0.2621   60.6438 C.3     1  ZINC001492779707    0.0200
     27 C27        -8.5175    0.5569   61.2955 C.3     1  ZINC001492779707    0.0300
     28 O28        -9.5143    0.6771   60.2761 O.3     1  ZINC001492779707   -0.3800
     29 H29       -14.0286   -1.0006   58.7325 H       1  ZINC001492779707    0.0900
     30 H30       -14.7238   -2.4603   57.9880 H       1  ZINC001492779707    0.1000
     31 H31       -13.0876   -2.5109   58.6871 H       1  ZINC001492779707    0.0800
     32 H32       -11.4055   -1.3535   52.6233 H       1  ZINC001492779707    0.0500
     33 H33        -9.6375   -1.3900   52.8256 H       1  ZINC001492779707    0.0900
     34 H34       -10.6528   -2.5976   53.6498 H       1  ZINC001492779707    0.0700
     35 H35       -10.7721    0.8028   52.9870 H       1  ZINC001492779707    0.0700
     36 H36       -11.5209    1.2666   54.5338 H       1  ZINC001492779707    0.0900
     37 H37       -10.2510    2.3027   56.2297 H       1  ZINC001492779707    0.1200
     38 H38        -8.1361    3.3355   56.9504 H       1  ZINC001492779707    0.1300
     39 H39        -6.0836    2.9859   55.6377 H       1  ZINC001492779707    0.1300
     40 H40        -6.6654    1.8124   51.5402 H       1  ZINC001492779707    0.0700
     41 H41        -5.1693    4.0676   52.9518 H       1  ZINC001492779707    0.0700
     42 H42        -5.9350    4.1743   51.3485 H       1  ZINC001492779707    0.0800
     43 H43        -6.9375    3.9313   52.7992 H       1  ZINC001492779707    0.0700
     44 H44        -4.4186    0.7746   51.3862 H       1  ZINC001492779707    0.0600
     45 H45        -4.4642    2.3309   50.5233 H       1  ZINC001492779707    0.0700
     46 H46        -3.6984    2.2241   52.1267 H       1  ZINC001492779707    0.0700
     47 H47        -8.2690    0.5594   52.8807 H       1  ZINC001492779707    0.1300
     48 H48       -10.9147   -2.3567   58.0587 H       1  ZINC001492779707    0.1000
     49 H49        -9.8472   -1.5579   56.8795 H       1  ZINC001492779707    0.1000
     50 H50       -10.3921    0.6337   57.7745 H       1  ZINC001492779707    0.0900
     51 H51       -11.6496   -0.0575   58.8277 H       1  ZINC001492779707    0.0800
     52 H52        -8.3396   -1.7130   58.2379 H       1  ZINC001492779707    0.1100
     53 H53        -8.0129    0.0344   58.1259 H       1  ZINC001492779707    0.0600
     54 H54        -6.4172    0.0848   61.4184 H       1  ZINC001492779707    0.1100
     55 H55        -6.8605    1.1121   60.0325 H       1  ZINC001492779707    0.0600
     56 H56        -8.7830   -0.2581   61.9689 H       1  ZINC001492779707    0.0600
     57 H57        -8.4563    1.4893   61.8569 H       1  ZINC001492779707    0.1100
@<TRIPOS>BOND
     1     1     2    1
     2     1    29    1
     3     1    30    1
     4     1    31    1
     5     2    19    1
     6     2     3    2
     7     3     4    1
     8     4     5    2
     9     5     6    1
    10     5    19    1
    11     6     7    1
    12     6     8    1
    13     7    32    1
    14     7    33    1
    15     7    34    1
    16     8     9    1
    17     8    35    1
    18     8    36    1
    19     9    18   ar
    20     9    10   ar
    21    10    11   ar
    22    10    37    1
    23    11    12   ar
    24    11    38    1
    25    12    13   ar
    26    12    39    1
    27    13    14    1
    28    13    18   ar
    29    14    15    1
    30    15    16    1
    31    15    17    1
    32    15    40    1
    33    16    41    1
    34    16    42    1
    35    16    43    1
    36    17    44    1
    37    17    45    1
    38    17    46    1
    39    18    47    1
    40    19    20    1
    41    20    21    1
    42    20    48    1
    43    20    49    1
    44    21    22    1
    45    21    50    1
    46    21    51    1
    47    22    23    1
    48    22    28    1
    49    22    24    1
    50    24    25    1
    51    24    52    1
    52    24    53    1
    53    25    26    1
    54    26    27    1
    55    26    54    1
    56    26    55    1
    57    27    28    1
    58    27    56    1
    59    27    57    1
@<TRIPOS>SUBSTRUCTURE
     1 ZINC001492779707        1 TEMP              0 ****  ****    0 ROOT


##########                                Name:    ZINC000632456679
##########                DOCK_Rotatable_Bonds:                   6
##########                         Heavy_Atoms:                  24
##########                    Molecular_Weight:              374.82
##########                DOCK_Rotatable_Bonds:                   6
##########                       Formal_Charge:          -0.0299999
##########                     HBond_Acceptors:                   9
##########                        HBond_Donors:                   1
##########                         Heavy_Atoms:                  24
##########                          Grid_Score:          -28.845510
##########                     Grid_vdw_energy:          -27.659269
##########                      Grid_es_energy:           -1.186242
##########           Internal_energy_repulsive:           34.058701

@<TRIPOS>MOLECULE
ZINC000632456679
 40 41 1 0 0
SMALL
USER_CHARGES


@<TRIPOS>ATOM
      1 C1        -12.6866   -0.0931   58.6432 C.3     1  ZINC000632456679   -0.1600
      2 C2        -12.1634   -1.3246   57.9012 C.3     1  ZINC000632456679    0.1900
      3 C3        -11.3966   -2.2201   58.8764 C.3     1  ZINC000632456679   -0.2000
      4 C4        -13.3411   -2.1034   57.3119 C.3     1  ZINC000632456679   -0.6300
      5 S5        -14.7317   -2.0692   58.4762 S.o2    1  ZINC000632456679    2.4100
      6 C6        -15.8083   -3.3696   57.8125 C.3     1  ZINC000632456679   -0.6600
      7 O7        -14.2627   -2.4781   59.7538 O.2     1  ZINC000632456679   -0.9300
      8 O8        -15.3984   -0.8208   58.3488 O.2     1  ZINC000632456679   -0.9300
      9 N9        -11.2690   -0.9005   56.8212 N.am    1  ZINC000632456679   -0.7200
     10 C10       -10.7950   -1.8069   55.9436 C.2     1  ZINC000632456679    0.6200
     11 O11       -11.1085   -2.9769   56.0492 O.2     1  ZINC000632456679   -0.5000
     12 C12        -9.8958   -1.3795   54.8550 C.2     1  ZINC000632456679   -0.0900
     13 C13        -9.1599   -0.2297   54.8046 C.2     1  ZINC000632456679   -0.1300
     14 C14        -8.4825   -0.3150   53.5571 C.2     1  ZINC000632456679    0.0400
     15 C15        -7.5382    0.6781   52.9874 C.ar    1  ZINC000632456679   -0.0500
     16 C16        -6.3727    0.2517   52.3546 C.ar    1  ZINC000632456679   -0.0600
     17 C17        -5.4973    1.1789   51.8262 C.ar    1  ZINC000632456679   -0.1100
     18 C18        -5.7738    2.5307   51.9236 C.ar    1  ZINC000632456679   -0.0700
     19 C19        -6.9292    2.9627   52.5505 C.ar    1  ZINC000632456679   -0.0800
     20 Cl20       -7.2685    4.6611   52.6685 Cl      1  ZINC000632456679   -0.0400
     21 C21        -7.8172    2.0421   53.0785 C.ar    1  ZINC000632456679    0.1400
     22 F22        -8.9456    2.4633   53.6904 F       1  ZINC000632456679   -0.1100
     23 N23        -8.8574   -1.4449   53.0116 N.2     1  ZINC000632456679   -0.3200
     24 O24        -9.6325   -2.0481   53.7162 O.3     1  ZINC000632456679    0.1400
     25 H25       -11.8476    0.4618   59.0631 H       1  ZINC000632456679    0.0900
     26 H26       -13.2329    0.5448   57.9485 H       1  ZINC000632456679    0.0600
     27 H27       -13.3521   -0.4086   59.4468 H       1  ZINC000632456679    0.0700
     28 H28       -12.0621   -2.5356   59.6799 H       1  ZINC000632456679    0.0800
     29 H29       -11.0239   -3.0975   58.3478 H       1  ZINC000632456679    0.0800
     30 H30       -10.5576   -1.6652   59.2963 H       1  ZINC000632456679    0.0900
     31 H31       -13.6444   -1.6461   56.3702 H       1  ZINC000632456679    0.1600
     32 H32       -13.0414   -3.1362   57.1343 H       1  ZINC000632456679    0.1400
     33 H33       -15.2734   -4.3194   57.8129 H       1  ZINC000632456679    0.1300
     34 H34       -16.7003   -3.4548   58.4331 H       1  ZINC000632456679    0.1300
     35 H35       -16.0980   -3.1162   56.7927 H       1  ZINC000632456679    0.1300
     36 H36       -11.0179    0.0327   56.7378 H       1  ZINC000632456679    0.4200
     37 H37        -9.1057    0.5597   55.5397 H       1  ZINC000632456679    0.1900
     38 H38        -6.1541   -0.8031   52.2777 H       1  ZINC000632456679    0.1500
     39 H39        -4.5939    0.8480   51.3357 H       1  ZINC000632456679    0.1500
     40 H40        -5.0848    3.2517   51.5090 H       1  ZINC000632456679    0.1500
@<TRIPOS>BOND
     1     1     2    1
     2     1    25    1
     3     1    26    1
     4     1    27    1
     5     2     3    1
     6     2     4    1
     7     2     9    1
     8     3    28    1
     9     3    29    1
    10     3    30    1
    11     4     5    1
    12     4    31    1
    13     4    32    1
    14     5     6    1
    15     5     7    2
    16     5     8    2
    17     6    33    1
    18     6    34    1
    19     6    35    1
    20     9    10   am
    21     9    36    1
    22    10    11    2
    23    10    12    1
    24    12    24    1
    25    12    13    2
    26    13    14    1
    27    13    37    1
    28    14    15    1
    29    14    23    2
    30    15    21   ar
    31    15    16   ar
    32    16    17   ar
    33    16    38    1
    34    17    18   ar
    35    17    39    1
    36    18    19   ar
    37    18    40    1
    38    19    20    1
    39    19    21   ar
    40    21    22    1
    41    23    24    1
@<TRIPOS>SUBSTRUCTURE
     1 ZINC000632456679        1 TEMP              0 ****  ****    0 ROOT


##########                                Name:    ZINC000603906271
##########                DOCK_Rotatable_Bonds:                   8
##########                         Heavy_Atoms:                  29
##########                    Molecular_Weight:             391.473
##########                DOCK_Rotatable_Bonds:                   8
##########                       Formal_Charge:           0.0499998
##########                     HBond_Acceptors:                   7
##########                        HBond_Donors:                   3
##########                         Heavy_Atoms:                  29
##########                          Grid_Score:          -28.818861
##########                     Grid_vdw_energy:          -28.111521
##########                      Grid_es_energy:           -0.707340
##########           Internal_energy_repulsive:           21.875177

@<TRIPOS>MOLECULE
ZINC000603906271
 54 56 1 0 0
SMALL
USER_CHARGES


@<TRIPOS>ATOM
      1 C1         -7.7507    0.6527   60.6717 C.3     1  ZINC000603906271   -0.1600
      2 C2         -7.9020    0.1138   59.2477 C.3     1  ZINC000603906271    0.1300
      3 H3         -7.5069   -0.9010   59.1993 H       1  ZINC000603906271    0.1200
      4 N4         -9.3194    0.1041   58.8773 N.am    1  ZINC000603906271   -0.7100
      5 C5         -9.8595   -0.9913   58.3073 C.2     1  ZINC000603906271    0.5700
      6 O6         -9.1701   -1.9706   58.0990 O.2     1  ZINC000603906271   -0.5300
      7 C7        -11.2903   -1.0018   57.9350 C.ar    1  ZINC000603906271   -0.1400
      8 C8        -11.8518   -2.1337   57.3421 C.ar    1  ZINC000603906271   -0.0800
      9 C9        -13.1877   -2.1372   56.9976 C.ar    1  ZINC000603906271   -0.1200
     10 C10       -13.9702   -1.0217   57.2380 C.ar    1  ZINC000603906271   -0.0400
     11 C11       -15.4286   -1.0325   56.8585 C.3     1  ZINC000603906271   -0.0400
     12 C12       -16.2154   -1.8557   57.8803 C.3     1  ZINC000603906271   -0.1400
     13 C13       -15.9613    0.4016   56.8401 C.3     1  ZINC000603906271   -0.1500
     14 C14       -15.5897   -1.6543   55.4699 C.3     1  ZINC000603906271   -0.1400
     15 C15       -13.4198    0.1034   57.8259 C.ar    1  ZINC000603906271   -0.1300
     16 C16       -12.0865    0.1179   58.1801 C.ar    1  ZINC000603906271   -0.0500
     17 C17        -7.1393    0.9959   58.2932 C.2     1  ZINC000603906271    0.5100
     18 O18        -5.9396    1.1267   58.4152 O.2     1  ZINC000603906271   -0.5100
     19 N19        -7.7901    1.6395   57.3040 N.am    1  ZINC000603906271   -0.6700
     20 C20        -7.0818    2.4585   56.4176 C.ar    1  ZINC000603906271    0.1300
     21 C21        -6.6301    3.7048   56.8333 C.ar    1  ZINC000603906271   -0.1200
     22 C22        -5.9301    4.5166   55.9606 C.ar    1  ZINC000603906271   -0.1000
     23 C23        -5.6765    4.0939   54.6713 C.ar    1  ZINC000603906271   -0.0900
     24 C24        -6.1264    2.8452   54.2455 C.ar    1  ZINC000603906271    0.0000
     25 C25        -5.8550    2.3895   52.8594 C.2     1  ZINC000603906271    0.2700
     26 N26        -6.5894    1.5410   52.1739 N.2     1  ZINC000603906271   -0.3000
     27 N27        -5.9733    1.3946   50.9204 N.pl3   1  ZINC000603906271   -0.4800
     28 C28        -4.8837    2.1833   50.9354 C.2     1  ZINC000603906271    0.2700
     29 N29        -4.8242    2.7788   52.0971 N.2     1  ZINC000603906271   -0.5300
     30 C30        -6.8256    2.0242   55.1256 C.ar    1  ZINC000603906271   -0.0800
     31 H31        -8.1458    1.6674   60.7201 H       1  ZINC000603906271    0.0700
     32 H32        -8.3023    0.0146   61.3622 H       1  ZINC000603906271    0.0800
     33 H33        -6.6961    0.6599   60.9473 H       1  ZINC000603906271    0.0700
     34 H34        -9.8692    0.8860   59.0424 H       1  ZINC000603906271    0.4100
     35 H35       -11.2420   -3.0048   57.1532 H       1  ZINC000603906271    0.1300
     36 H36       -13.6236   -3.0124   56.5387 H       1  ZINC000603906271    0.1300
     37 H37       -16.1007   -1.4128   58.8696 H       1  ZINC000603906271    0.0600
     38 H38       -17.2703   -1.8635   57.6058 H       1  ZINC000603906271    0.0600
     39 H39       -15.8359   -2.8774   57.8934 H       1  ZINC000603906271    0.0600
     40 H40       -15.4008    0.9881   56.1121 H       1  ZINC000603906271    0.0600
     41 H41       -17.0162    0.3938   56.5656 H       1  ZINC000603906271    0.0600
     42 H42       -15.8466    0.8446   57.8294 H       1  ZINC000603906271    0.0600
     43 H43       -15.2101   -2.6760   55.4831 H       1  ZINC000603906271    0.0600
     44 H44       -16.6444   -1.6620   55.1954 H       1  ZINC000603906271    0.0600
     45 H45       -15.0291   -1.0678   54.7419 H       1  ZINC000603906271    0.0600
     46 H46       -14.0361    0.9707   58.0112 H       1  ZINC000603906271    0.1400
     47 H47       -11.6581    0.9967   58.6393 H       1  ZINC000603906271    0.1400
     48 H48        -8.7495    1.5348   57.2064 H       1  ZINC000603906271    0.4200
     49 H49        -6.8265    4.0404   57.8409 H       1  ZINC000603906271    0.1300
     50 H50        -5.5809    5.4846   56.2884 H       1  ZINC000603906271    0.1400
     51 H51        -5.1296    4.7310   53.9919 H       1  ZINC000603906271    0.1400
     52 H52        -6.2743    0.8346   50.1879 H       1  ZINC000603906271    0.4400
     53 H53        -4.1810    2.3069   50.1246 H       1  ZINC000603906271    0.2300
     54 H54        -7.1761    1.0559   54.8004 H       1  ZINC000603906271    0.1500
@<TRIPOS>BOND
     1     1     2    1
     2     1    31    1
     3     1    32    1
     4     1    33    1
     5     2     3    1
     6     2     4    1
     7     2    17    1
     8     4     5   am
     9     4    34    1
    10     5     6    2
    11     5     7    1
    12     7    16   ar
    13     7     8   ar
    14     8     9   ar
    15     8    35    1
    16     9    10   ar
    17     9    36    1
    18    10    11    1
    19    10    15   ar
    20    11    12    1
    21    11    13    1
    22    11    14    1
    23    12    37    1
    24    12    38    1
    25    12    39    1
    26    13    40    1
    27    13    41    1
    28    13    42    1
    29    14    43    1
    30    14    44    1
    31    14    45    1
    32    15    16   ar
    33    15    46    1
    34    16    47    1
    35    17    18    2
    36    17    19   am
    37    19    20    1
    38    19    48    1
    39    20    30   ar
    40    20    21   ar
    41    21    22   ar
    42    21    49    1
    43    22    23   ar
    44    22    50    1
    45    23    24   ar
    46    23    51    1
    47    24    25    1
    48    24    30   ar
    49    25    29    1
    50    25    26    2
    51    26    27    1
    52    27    28    1
    53    27    52    1
    54    28    29    2
    55    28    53    1
    56    30    54    1
@<TRIPOS>SUBSTRUCTURE
     1 ZINC000603906271        1 TEMP              0 ****  ****    0 ROOT


##########                                Name:    ZINC000440379747
##########                DOCK_Rotatable_Bonds:                   8
##########                         Heavy_Atoms:                  27
##########                    Molecular_Weight:             394.452
##########                DOCK_Rotatable_Bonds:                   8
##########                       Formal_Charge:           0.0199995
##########                     HBond_Acceptors:                  10
##########                        HBond_Donors:                   3
##########                         Heavy_Atoms:                  27
##########                          Grid_Score:          -28.798685
##########                     Grid_vdw_energy:          -28.689356
##########                      Grid_es_energy:           -0.109329
##########           Internal_energy_repulsive:           18.482712

@<TRIPOS>MOLECULE
ZINC000440379747
 49 51 1 0 0
SMALL
USER_CHARGES


@<TRIPOS>ATOM
      1 C1         -3.0666    4.1256   53.9371 C.3     1  ZINC000440379747   -0.1800
      2 C2         -4.3341    3.6712   54.6138 C.2     1  ZINC000440379747    0.5200
      3 O3         -4.5205    3.9245   55.7853 O.2     1  ZINC000440379747   -0.5200
      4 N4         -5.2606    2.9832   53.9174 N.am    1  ZINC000440379747   -0.5500
      5 C5         -5.1485    2.6186   52.5027 C.3     1  ZINC000440379747    0.1100
      6 C6         -6.4412    1.8517   52.1799 C.3     1  ZINC000440379747   -0.0900
      7 C7         -7.2127    1.8402   53.4804 C.ar    1  ZINC000440379747   -0.1100
      8 C8         -8.4419    1.2974   53.7975 C.ar    1  ZINC000440379747   -0.0700
      9 C9         -8.9463    1.4208   55.0860 C.ar    1  ZINC000440379747    0.1200
     10 N10       -10.1909    0.8713   55.4090 N.am    1  ZINC000440379747   -0.6400
     11 C11       -10.2597   -0.2494   56.1546 C.2     1  ZINC000440379747    0.5100
     12 O12        -9.2412   -0.7816   56.5456 O.2     1  ZINC000440379747   -0.4900
     13 C13       -11.5888   -0.8362   56.4995 C.2     1  ZINC000440379747    0.5200
     14 O14       -12.3507   -1.1736   55.6171 O.2     1  ZINC000440379747   -0.5100
     15 N15       -11.9424   -0.9913   57.7908 N.am    1  ZINC000440379747   -0.5800
     16 C16       -11.1179   -0.6260   58.9572 C.3     1  ZINC000440379747    0.1000
     17 C17       -12.1329   -0.4032   60.1060 C.3     1  ZINC000440379747   -0.1300
     18 C18       -13.1835   -1.5064   59.8119 C.3     1  ZINC000440379747   -0.1600
     19 C19       -13.2166   -1.5468   58.2695 C.3     1  ZINC000440379747    0.1500
     20 H20       -14.0495   -0.9480   57.9008 H       1  ZINC000440379747    0.1000
     21 C21       -13.3627   -2.9923   57.7898 C.3     1  ZINC000440379747   -0.6500
     22 S22       -15.0598   -3.5595   58.0874 S.o2    1  ZINC000440379747    2.6200
     23 N23       -16.0115   -2.4088   57.3716 N.am    1  ZINC000440379747   -1.2500
     24 O24       -15.3265   -4.7439   57.3489 O.2     1  ZINC000440379747   -0.9500
     25 O25       -15.3805   -3.4696   59.4688 O.2     1  ZINC000440379747   -0.9500
     26 C26        -8.2079    2.0925   56.0522 C.ar    1  ZINC000440379747   -0.1000
     27 C27        -6.9815    2.6333   55.7336 C.ar    1  ZINC000440379747   -0.1400
     28 C28        -6.4680    2.5070   54.4413 C.ar    1  ZINC000440379747    0.1400
     29 H29        -2.4444    4.6618   54.6534 H       1  ZINC000440379747    0.1000
     30 H30        -2.5238    3.2579   53.5622 H       1  ZINC000440379747    0.1000
     31 H31        -3.3151    4.7856   53.1060 H       1  ZINC000440379747    0.1000
     32 H32        -5.0764    3.5145   51.8860 H       1  ZINC000440379747    0.0900
     33 H33        -4.2801    1.9791   52.3447 H       1  ZINC000440379747    0.0900
     34 H34        -7.0077    2.3703   51.4064 H       1  ZINC000440379747    0.0900
     35 H35        -6.2108    0.8338   51.8656 H       1  ZINC000440379747    0.1000
     36 H36        -9.0122    0.7765   53.0427 H       1  ZINC000440379747    0.1400
     37 H37       -11.0047    1.2965   55.0964 H       1  ZINC000440379747    0.4200
     38 H38       -10.4339   -1.4370   59.2072 H       1  ZINC000440379747    0.0800
     39 H39       -10.5635    0.2910   58.7575 H       1  ZINC000440379747    0.1000
     40 H40       -11.6639   -0.5594   61.0775 H       1  ZINC000440379747    0.1000
     41 H41       -12.5805    0.5888   60.0450 H       1  ZINC000440379747    0.0800
     42 H42       -12.8612   -2.4644   60.2195 H       1  ZINC000440379747    0.1000
     43 H43       -14.1591   -1.2256   60.2090 H       1  ZINC000440379747    0.1000
     44 H44       -13.1436   -3.0451   56.7234 H       1  ZINC000440379747    0.1500
     45 H45       -12.6660   -3.6283   58.3359 H       1  ZINC000440379747    0.1400
     46 H46       -15.9617   -1.4860   57.6665 H       1  ZINC000440379747    0.4100
     47 H47       -16.6189   -2.6575   56.6573 H       1  ZINC000440379747    0.4200
     48 H48        -8.5962    2.1912   57.0551 H       1  ZINC000440379747    0.1400
     49 H49        -6.4121    3.1547   56.4888 H       1  ZINC000440379747    0.1500
@<TRIPOS>BOND
     1     1     2    1
     2     1    29    1
     3     1    30    1
     4     1    31    1
     5     2     3    2
     6     2     4   am
     7     4    28    1
     8     4     5    1
     9     5     6    1
    10     5    32    1
    11     5    33    1
    12     6     7    1
    13     6    34    1
    14     6    35    1
    15     7    28   ar
    16     7     8   ar
    17     8     9   ar
    18     8    36    1
    19     9    10    1
    20     9    26   ar
    21    10    11   am
    22    10    37    1
    23    11    12    2
    24    11    13    1
    25    13    14    2
    26    13    15   am
    27    15    19    1
    28    15    16    1
    29    16    17    1
    30    16    38    1
    31    16    39    1
    32    17    18    1
    33    17    40    1
    34    17    41    1
    35    18    19    1
    36    18    42    1
    37    18    43    1
    38    19    20    1
    39    19    21    1
    40    21    22    1
    41    21    44    1
    42    21    45    1
    43    22    23   am
    44    22    24    2
    45    22    25    2
    46    23    46    1
    47    23    47    1
    48    26    27   ar
    49    26    48    1
    50    27    28   ar
    51    27    49    1
@<TRIPOS>SUBSTRUCTURE
     1 ZINC000440379747        1 TEMP              0 ****  ****    0 ROOT


##########                                Name:    ZINC000653668607
##########                DOCK_Rotatable_Bonds:                   5
##########                         Heavy_Atoms:                  28
##########                    Molecular_Weight:             379.459
##########                DOCK_Rotatable_Bonds:                   5
##########                       Formal_Charge:          0.00999918
##########                     HBond_Acceptors:                   6
##########                        HBond_Donors:                   2
##########                         Heavy_Atoms:                  28
##########                          Grid_Score:          -28.770725
##########                     Grid_vdw_energy:          -29.118109
##########                      Grid_es_energy:            0.347384
##########           Internal_energy_repulsive:           11.019245

@<TRIPOS>MOLECULE
ZINC000653668607
 53 56 1 0 0
SMALL
USER_CHARGES


@<TRIPOS>ATOM
      1 C1         -4.9089    2.4695   51.4163 C.3     1  ZINC000653668607    0.0300
      2 O2         -5.2812    2.0961   52.7445 O.3     1  ZINC000653668607   -0.3200
      3 C3         -6.3368    1.2502   52.8746 C.ar    1  ZINC000653668607    0.1300
      4 C4         -6.2997   -0.0064   52.2880 C.ar    1  ZINC000653668607   -0.2000
      5 C5         -7.3748   -0.8581   52.4285 C.ar    1  ZINC000653668607   -0.0800
      6 C6         -8.4953   -0.4700   53.1520 C.ar    1  ZINC000653668607   -0.1000
      7 C7         -9.6258   -1.4580   53.2757 C.3     1  ZINC000653668607   -0.0800
      8 C8        -10.9108   -0.7532   53.7055 C.3     1  ZINC000653668607   -0.1200
      9 C9        -10.6053    0.0963   54.9448 C.3     1  ZINC000653668607   -0.1100
     10 C10        -9.7230    1.2683   54.5201 C.3     1  ZINC000653668607   -0.0600
     11 H11       -10.3066    1.9531   53.9049 H       1  ZINC000653668607    0.1000
     12 C12        -9.2368    1.9947   55.7476 C.2     1  ZINC000653668607    0.5200
     13 O13        -9.8848    2.9119   56.2060 O.2     1  ZINC000653668607   -0.5100
     14 N14        -8.0820    1.6254   56.3362 N.am    1  ZINC000653668607   -0.6700
     15 C15        -7.6306    2.2998   57.4759 C.ar    1  ZINC000653668607    0.1500
     16 C16        -6.8268    3.4251   57.3452 C.ar    1  ZINC000653668607   -0.1100
     17 C17        -6.3805    4.0917   58.4703 C.ar    1  ZINC000653668607   -0.0900
     18 C18        -6.7319    3.6416   59.7282 C.ar    1  ZINC000653668607   -0.1200
     19 C19        -7.5351    2.5164   59.8657 C.ar    1  ZINC000653668607    0.1700
     20 N20        -7.8903    2.0607   61.1404 N.am    1  ZINC000653668607   -0.5800
     21 C21        -8.7355    2.8993   61.9918 C.3     1  ZINC000653668607    0.1100
     22 C22        -9.5572    2.0025   62.9239 C.3     1  ZINC000653668607   -0.1500
     23 C23        -8.5961    1.1000   63.7049 C.3     1  ZINC000653668607    0.1100
     24 N24        -7.7585    0.3590   62.7604 N.am    1  ZINC000653668607   -0.7400
     25 C25        -7.4537    0.8620   61.5548 C.2     1  ZINC000653668607    0.7100
     26 O26        -6.7455    0.2099   60.8122 O.2     1  ZINC000653668607   -0.5800
     27 C27        -7.9900    1.8486   58.7380 C.ar    1  ZINC000653668607   -0.1300
     28 C28        -8.5367    0.7795   53.7307 C.ar    1  ZINC000653668607   -0.0300
     29 C29        -7.4527    1.6358   53.5980 C.ar    1  ZINC000653668607   -0.1500
     30 H30        -4.6411    1.5776   50.8497 H       1  ZINC000653668607    0.0600
     31 H31        -5.7469    2.9702   50.9313 H       1  ZINC000653668607    0.0600
     32 H32        -4.0547    3.1456   51.4549 H       1  ZINC000653668607    0.1000
     33 H33        -5.4327   -0.3160   51.7234 H       1  ZINC000653668607    0.1300
     34 H34        -7.3456   -1.8362   51.9715 H       1  ZINC000653668607    0.1300
     35 H35        -9.7866   -1.9426   52.3127 H       1  ZINC000653668607    0.0800
     36 H36        -9.3643   -2.2124   54.0178 H       1  ZINC000653668607    0.0800
     37 H37       -11.2649   -0.1114   52.8988 H       1  ZINC000653668607    0.0700
     38 H38       -11.6727   -1.4942   53.9471 H       1  ZINC000653668607    0.0800
     39 H39       -11.5357    0.4725   55.3703 H       1  ZINC000653668607    0.0700
     40 H40       -10.0810   -0.5087   55.6846 H       1  ZINC000653668607    0.0800
     41 H41        -7.5638    0.8918   55.9696 H       1  ZINC000653668607    0.4100
     42 H42        -6.5501    3.7792   56.3631 H       1  ZINC000653668607    0.1400
     43 H43        -5.7555    4.9662   58.3660 H       1  ZINC000653668607    0.1300
     44 H44        -6.3815    4.1647   60.6057 H       1  ZINC000653668607    0.1200
     45 H45        -8.1083    3.5642   62.5857 H       1  ZINC000653668607    0.0700
     46 H46        -9.4073    3.4902   61.3693 H       1  ZINC000653668607    0.0900
     47 H47       -10.1257    2.6202   63.6189 H       1  ZINC000653668607    0.1000
     48 H48       -10.2383    1.3885   62.3344 H       1  ZINC000653668607    0.0800
     49 H49        -7.9649    1.7116   64.3495 H       1  ZINC000653668607    0.0700
     50 H50        -9.1678    0.3986   64.3127 H       1  ZINC000653668607    0.0900
     51 H51        -7.4201   -0.5152   63.0099 H       1  ZINC000653668607    0.4200
     52 H52        -8.6147    0.9739   58.8424 H       1  ZINC000653668607    0.1300
     53 H53        -7.4818    2.6124   54.0583 H       1  ZINC000653668607    0.1200
@<TRIPOS>BOND
     1     1     2    1
     2     1    30    1
     3     1    31    1
     4     1    32    1
     5     2     3    1
     6     3    29   ar
     7     3     4   ar
     8     4     5   ar
     9     4    33    1
    10     5     6   ar
    11     5    34    1
    12     6    28   ar
    13     6     7    1
    14     7     8    1
    15     7    35    1
    16     7    36    1
    17     8     9    1
    18     8    37    1
    19     8    38    1
    20     9    10    1
    21     9    39    1
    22     9    40    1
    23    10    11    1
    24    10    12    1
    25    10    28    1
    26    12    13    2
    27    12    14   am
    28    14    15    1
    29    14    41    1
    30    15    27   ar
    31    15    16   ar
    32    16    17   ar
    33    16    42    1
    34    17    18   ar
    35    17    43    1
    36    18    19   ar
    37    18    44    1
    38    19    20    1
    39    19    27   ar
    40    20    25   am
    41    20    21    1
    42    21    22    1
    43    21    45    1
    44    21    46    1
    45    22    23    1
    46    22    47    1
    47    22    48    1
    48    23    24    1
    49    23    49    1
    50    23    50    1
    51    24    25   am
    52    24    51    1
    53    25    26    2
    54    27    52    1
    55    28    29   ar
    56    29    53    1
@<TRIPOS>SUBSTRUCTURE
     1 ZINC000653668607        1 TEMP              0 ****  ****    0 ROOT


##########                                Name:    ZINC000065993627
##########                DOCK_Rotatable_Bonds:                   7
##########                         Heavy_Atoms:                  28
##########                    Molecular_Weight:             382.462
##########                DOCK_Rotatable_Bonds:                   7
##########                       Formal_Charge:          -0.0200002
##########                     HBond_Acceptors:                   7
##########                        HBond_Donors:                   2
##########                         Heavy_Atoms:                  28
##########                          Grid_Score:          -28.737934
##########                     Grid_vdw_energy:          -29.327755
##########                      Grid_es_energy:            0.589822
##########           Internal_energy_repulsive:           14.608374

@<TRIPOS>MOLECULE
ZINC000065993627
 54 56 1 0 0
SMALL
USER_CHARGES


@<TRIPOS>ATOM
      1 C1        -10.1292   -2.7454   56.5468 C.3     1  ZINC000065993627   -0.1200
      2 C2        -11.5383   -2.2148   56.4846 C.ar    1  ZINC000065993627   -0.0700
      3 C3        -12.4892   -2.6759   57.3730 C.ar    1  ZINC000065993627   -0.1800
      4 C4        -13.7880   -2.1868   57.3158 C.ar    1  ZINC000065993627    0.2000
      5 N5        -14.7518   -2.6536   58.2163 N.pl3   1  ZINC000065993627   -0.6400
      6 C6        -15.0370   -1.9000   59.4397 C.3     1  ZINC000065993627    0.1000
      7 C7        -15.4757   -3.8959   57.9356 C.3     1  ZINC000065993627    0.0900
      8 C8        -14.1297   -1.2343   56.3649 C.ar    1  ZINC000065993627   -0.1800
      9 C9        -13.1782   -0.7735   55.4765 C.ar    1  ZINC000065993627   -0.0800
     10 C10       -11.8789   -1.2582   55.5376 C.ar    1  ZINC000065993627    0.1100
     11 N11       -10.9130   -0.7898   54.6357 N.am    1  ZINC000065993627   -0.6800
     12 C12       -10.6593    0.5308   54.5457 C.2     1  ZINC000065993627    0.7000
     13 O13       -11.2681    1.3160   55.2465 O.2     1  ZINC000065993627   -0.5700
     14 N14        -9.7307    0.9809   53.6787 N.am    1  ZINC000065993627   -0.7400
     15 C15        -9.4537    2.4163   53.5821 C.3     1  ZINC000065993627    0.2100
     16 H16        -9.8346    2.9205   54.4702 H       1  ZINC000065993627    0.1000
     17 C17       -10.1398    2.9856   52.3386 C.3     1  ZINC000065993627   -0.1600
     18 C18        -7.9662    2.6350   53.4794 C.ar    1  ZINC000065993627   -0.1200
     19 C19        -7.4011    3.7872   53.9944 C.ar    1  ZINC000065993627   -0.0800
     20 C20        -6.0381    3.9907   53.9017 C.ar    1  ZINC000065993627   -0.1500
     21 C21        -5.2352    3.0367   53.2908 C.ar    1  ZINC000065993627    0.1800
     22 N22        -3.8537    3.2396   53.1957 N.am    1  ZINC000065993627   -0.5700
     23 C23        -3.0060    3.8528   54.2296 C.3     1  ZINC000065993627    0.0600
     24 C24        -1.5952    3.8266   53.6105 C.3     1  ZINC000065993627    0.0400
     25 O25        -1.7937    3.2079   52.3063 O.3     1  ZINC000065993627   -0.3200
     26 C26        -3.0866    2.9018   52.1501 C.2     1  ZINC000065993627    0.6400
     27 O27        -3.5265    2.3738   51.1480 O.2     1  ZINC000065993627   -0.5000
     28 C28        -5.8057    1.8806   52.7746 C.ar    1  ZINC000065993627   -0.1500
     29 C29        -7.1686    1.6805   52.8754 C.ar    1  ZINC000065993627   -0.0800
     30 H30        -9.5382   -2.1284   57.2237 H       1  ZINC000065993627    0.0700
     31 H31       -10.1435   -3.7727   56.9104 H       1  ZINC000065993627    0.0700
     32 H32        -9.6867   -2.7185   55.5510 H       1  ZINC000065993627    0.0600
     33 H33       -12.2233   -3.4170   58.1122 H       1  ZINC000065993627    0.1200
     34 H34       -15.8313   -1.1791   59.2456 H       1  ZINC000065993627    0.0500
     35 H35       -15.3539   -2.5872   60.2243 H       1  ZINC000065993627    0.0700
     36 H36       -14.1382   -1.3730   59.7598 H       1  ZINC000065993627    0.0700
     37 H37       -15.0697   -4.3576   57.0355 H       1  ZINC000065993627    0.0800
     38 H38       -15.3636   -4.5797   58.7769 H       1  ZINC000065993627    0.0500
     39 H39       -16.5324   -3.6747   57.7854 H       1  ZINC000065993627    0.0500
     40 H40       -15.1396   -0.8542   56.3200 H       1  ZINC000065993627    0.1300
     41 H41       -13.4440   -0.0326   54.7369 H       1  ZINC000065993627    0.1500
     42 H42       -10.4273   -1.4163   54.0767 H       1  ZINC000065993627    0.4000
     43 H43        -9.2460    0.3547   53.1187 H       1  ZINC000065993627    0.4000
     44 H44       -11.2157    2.8274   52.4129 H       1  ZINC000065993627    0.0700
     45 H45        -9.9337    4.0534   52.2667 H       1  ZINC000065993627    0.0700
     46 H46        -9.7589    2.4813   51.4505 H       1  ZINC000065993627    0.0600
     47 H47        -8.0262    4.5291   54.4691 H       1  ZINC000065993627    0.1300
     48 H48        -5.5974    4.8909   54.3038 H       1  ZINC000065993627    0.1600
     49 H49        -3.3200    4.8784   54.4235 H       1  ZINC000065993627    0.1000
     50 H50        -3.0330    3.2634   55.1460 H       1  ZINC000065993627    0.1000
     51 H51        -1.2083    4.8394   53.4981 H       1  ZINC000065993627    0.1100
     52 H52        -0.9214    3.2247   54.2204 H       1  ZINC000065993627    0.1100
     53 H53        -5.1839    1.1370   52.2985 H       1  ZINC000065993627    0.1300
     54 H54        -7.6128    0.7815   52.4745 H       1  ZINC000065993627    0.1300
@<TRIPOS>BOND
     1     1     2    1
     2     1    30    1
     3     1    31    1
     4     1    32    1
     5     2    10   ar
     6     2     3   ar
     7     3     4   ar
     8     3    33    1
     9     4     5    1
    10     4     8   ar
    11     5     6    1
    12     5     7    1
    13     6    34    1
    14     6    35    1
    15     6    36    1
    16     7    37    1
    17     7    38    1
    18     7    39    1
    19     8     9   ar
    20     8    40    1
    21     9    10   ar
    22     9    41    1
    23    10    11    1
    24    11    12   am
    25    11    42    1
    26    12    13    2
    27    12    14   am
    28    14    15    1
    29    14    43    1
    30    15    16    1
    31    15    17    1
    32    15    18    1
    33    17    44    1
    34    17    45    1
    35    17    46    1
    36    18    29   ar
    37    18    19   ar
    38    19    20   ar
    39    19    47    1
    40    20    21   ar
    41    20    48    1
    42    21    22    1
    43    21    28   ar
    44    22    26   am
    45    22    23    1
    46    23    24    1
    47    23    49    1
    48    23    50    1
    49    24    25    1
    50    24    51    1
    51    24    52    1
    52    25    26    1
    53    26    27    2
    54    28    29   ar
    55    28    53    1
    56    29    54    1
@<TRIPOS>SUBSTRUCTURE
     1 ZINC000065993627        1 TEMP              0 ****  ****    0 ROOT


##########                                Name:    ZINC000355549087
##########                DOCK_Rotatable_Bonds:                   9
##########                         Heavy_Atoms:                  23
##########                    Molecular_Weight:             336.415
##########                DOCK_Rotatable_Bonds:                   9
##########                       Formal_Charge:        -9.53674e-07
##########                     HBond_Acceptors:                   8
##########                        HBond_Donors:                   4
##########                         Heavy_Atoms:                  23
##########                          Grid_Score:          -28.735399
##########                     Grid_vdw_energy:          -28.307573
##########                      Grid_es_energy:           -0.427826
##########           Internal_energy_repulsive:            9.803364

@<TRIPOS>MOLECULE
ZINC000355549087
 43 44 1 0 0
SMALL
USER_CHARGES


@<TRIPOS>ATOM
      1 C1         -7.4775    0.5235   60.9295 C.3     1  <0>        -0.1500
      2 C2         -8.9107    0.9063   61.3039 C.3     1  <0>        -0.1200
      3 C3         -9.7829    0.9081   60.0469 C.3     1  <0>        -0.1000
      4 H4         -9.2389    1.3787   59.2279 H       1  <0>         0.0800
      5 C5        -11.0697    1.6894   60.3199 C.3     1  <0>        -0.1500
      6 C6        -10.1318   -0.5322   59.6662 C.3     1  <0>         0.0900
      7 H7         -9.5329   -1.2208   60.2622 H       1  <0>         0.1000
      8 O8        -11.5189   -0.7682   59.9160 O.3     1  <0>        -0.3500
      9 C9        -11.9290   -2.1179   59.6878 C.3     1  <0>         0.0200
     10 C10        -9.8407   -0.7498   58.2037 C.2     1  <0>         0.5100
     11 O11        -9.0238   -1.5798   57.8650 O.2     1  <0>        -0.4800
     12 N12       -10.4879   -0.0220   57.2721 N.am    1  <0>        -0.6200
     13 C13       -10.2206   -0.2238   55.9235 C.2     1  <0>         0.2400
     14 N14        -9.1092    0.0861   55.3360 N.2     1  <0>        -0.5000
     15 C15        -9.0224   -0.1765   54.0386 C.2     1  <0>         0.1700
     16 C16        -7.8106    0.1238   53.2339 C.2     1  <0>        -0.1100
     17 C17        -7.0924   -0.7693   52.4915 C.2     1  <0>         0.0600
     18 N18        -6.0620   -0.1117   51.9058 N.pl3   1  <0>        -0.5400
     19 C19        -6.1152    1.2140   52.2725 C.2     1  <0>        -0.0600
     20 C20        -5.1799    2.2633   51.8523 C.2     1  <0>         0.5900
     21 N21        -3.9121    1.9442   51.5246 N.am    1  <0>        -0.8600
     22 O22        -5.5488    3.4218   51.7997 O.2     1  <0>        -0.5300
     23 C23        -7.1960    1.3822   53.0923 C.2     1  <0>        -0.0600
     24 C24       -10.1267   -0.7385   53.5149 C.2     1  <0>        -0.3200
     25 S25       -11.3096   -0.9229   54.8071 S.3     1  <0>         0.2500
     26 H26        -6.8560    0.5222   61.8250 H       1  <0>         0.0600
     27 H27        -7.4720   -0.4703   60.4820 H       1  <0>         0.0600
     28 H28        -7.0833    1.2460   60.2147 H       1  <0>         0.0600
     29 H29        -9.3048    0.1838   62.0185 H       1  <0>         0.0600
     30 H30        -8.9162    1.9002   61.7514 H       1  <0>         0.0700
     31 H31       -11.6136    1.2187   61.1390 H       1  <0>         0.0700
     32 H32       -10.8211    2.7155   60.5912 H       1  <0>         0.0600
     33 H33       -11.6910    1.6907   59.4244 H       1  <0>         0.0500
     34 H34       -13.0104   -2.1933   59.8028 H       1  <0>         0.0900
     35 H35       -11.6494   -2.4168   58.6776 H       1  <0>         0.0500
     36 H36       -11.4405   -2.7731   60.4090 H       1  <0>         0.0500
     37 H37       -11.1404    0.6427   57.5430 H       1  <0>         0.4200
     38 H38        -7.3091   -1.8223   52.3883 H       1  <0>         0.1800
     39 H39        -5.3960   -0.5101   51.3240 H       1  <0>         0.4200
     40 H40        -3.2940    2.6379   51.2456 H       1  <0>         0.4000
     41 H41        -3.6177    1.0209   51.5676 H       1  <0>         0.4100
     42 H42        -7.5151    2.3065   53.5509 H       1  <0>         0.1500
     43 H43       -10.2628   -1.0290   52.4838 H       1  <0>         0.1800
@<TRIPOS>BOND
     1     1     2    1
     2     1    26    1
     3     1    27    1
     4     1    28    1
     5     2     3    1
     6     2    29    1
     7     2    30    1
     8     3     4    1
     9     3     5    1
    10     3     6    1
    11     5    31    1
    12     5    32    1
    13     5    33    1
    14     6     7    1
    15     6     8    1
    16     6    10    1
    17     8     9    1
    18     9    34    1
    19     9    35    1
    20     9    36    1
    21    10    11    2
    22    10    12   am
    23    12    13    1
    24    12    37    1
    25    13    25    1
    26    13    14    2
    27    14    15    1
    28    15    16    1
    29    15    24    2
    30    16    23    1
    31    16    17    2
    32    17    18    1
    33    17    38    1
    34    18    19    1
    35    18    39    1
    36    19    20    1
    37    19    23    2
    38    20    21   am
    39    20    22    2
    40    21    40    1
    41    21    41    1
    42    23    42    1
    43    24    25    1
    44    24    43    1
@<TRIPOS>SUBSTRUCTURE
     1 <0>         1 TEMP              0 ****  ****    0 ROOT


##########                                Name:    ZINC000533037883
##########                DOCK_Rotatable_Bonds:                   7
##########                         Heavy_Atoms:                  27
##########                    Molecular_Weight:             368.479
##########                DOCK_Rotatable_Bonds:                   7
##########                       Formal_Charge:          0.00999947
##########                     HBond_Acceptors:                   6
##########                        HBond_Donors:                   1
##########                         Heavy_Atoms:                  27
##########                          Grid_Score:          -28.719570
##########                     Grid_vdw_energy:          -25.016222
##########                      Grid_es_energy:           -3.703349
##########           Internal_energy_repulsive:           14.910846

@<TRIPOS>MOLECULE
ZINC000533037883
 55 58 1 0 0
SMALL
USER_CHARGES


@<TRIPOS>ATOM
      1 O1        -16.3370    0.5915   59.5867 O.2     1  ZINC000533037883   -0.5900
      2 C2        -15.1792    0.2533   59.7397 C.2     1  ZINC000533037883    0.7100
      3 N3        -14.3018    1.0963   60.3195 N.am    1  ZINC000533037883   -0.7500
      4 C4        -14.7419    2.4225   60.7598 C.3     1  ZINC000533037883    0.1400
      5 C5        -13.5238    3.3312   60.9367 C.3     1  ZINC000533037883   -0.0500
      6 C6        -12.5497    2.6858   61.8884 C.2     1  ZINC000533037883   -0.2300
      7 C7        -11.3214    2.2144   61.5720 C.2     1  ZINC000533037883    0.0600
      8 N8        -10.7686    1.7160   62.7010 N.pl3   1  ZINC000533037883   -0.3200
      9 C9         -9.4990    1.1316   62.8096 C.ar    1  ZINC000533037883    0.1600
     10 C10        -8.7040    0.9804   61.6814 C.ar    1  ZINC000533037883   -0.1400
     11 C11        -7.4537    0.4042   61.7916 C.ar    1  ZINC000533037883   -0.0900
     12 C12        -6.9935   -0.0224   63.0238 C.ar    1  ZINC000533037883   -0.1300
     13 C13        -7.7830    0.1269   64.1492 C.ar    1  ZINC000533037883   -0.0900
     14 C14        -9.0317    0.7080   64.0464 C.ar    1  ZINC000533037883   -0.1200
     15 N15       -11.6890    1.8878   63.7430 N.2     1  ZINC000533037883   -0.2900
     16 C16       -12.7535    2.4735   63.2563 C.2     1  ZINC000533037883    0.0700
     17 N17       -14.7744   -0.9668   59.3346 N.am    1  ZINC000533037883   -0.6300
     18 C18       -15.7191   -1.8968   58.7011 C.3     1  ZINC000533037883    0.1100
     19 C19       -15.1365   -2.3537   57.3599 C.3     1  ZINC000533037883   -0.1400
     20 C20       -13.7390   -2.9349   57.5869 C.3     1  ZINC000533037883   -0.1100
     21 C21       -12.8237   -1.8549   58.1681 C.3     1  ZINC000533037883   -0.0900
     22 H22       -12.7798   -1.0080   57.4834 H       1  ZINC000533037883    0.0800
     23 C23       -11.4183   -2.4273   58.3632 C.3     1  ZINC000533037883   -0.1200
     24 H24       -11.3959   -3.1168   59.2071 H       1  ZINC000533037883    0.0900
     25 C25       -10.9202   -3.1232   57.0673 C.3     1  ZINC000533037883   -0.1500
     26 C26        -9.3869   -2.9539   57.2133 C.3     1  ZINC000533037883    0.0500
     27 O27        -9.2078   -1.6622   57.8155 O.3     1  ZINC000533037883   -0.3900
     28 C28       -10.3853   -1.2954   58.5510 C.3     1  ZINC000533037883    0.0500
     29 C29       -13.3787   -1.3899   59.5129 C.3     1  ZINC000533037883    0.1300
     30 H30       -13.3791    0.8250   60.4451 H       1  ZINC000533037883    0.4000
     31 H31       -15.4092    2.8507   60.0119 H       1  ZINC000533037883    0.0700
     32 H32       -15.2698    2.3334   61.7093 H       1  ZINC000533037883    0.0700
     33 H33       -13.0413    3.4842   59.9713 H       1  ZINC000533037883    0.0800
     34 H34       -13.8429    4.2922   61.3398 H       1  ZINC000533037883    0.0800
     35 H35       -10.8647    2.2326   60.5935 H       1  ZINC000533037883    0.1800
     36 H36        -9.0631    1.3127   60.7186 H       1  ZINC000533037883    0.1300
     37 H37        -6.8348    0.2863   60.9143 H       1  ZINC000533037883    0.1300
     38 H38        -6.0157   -0.4733   63.1073 H       1  ZINC000533037883    0.1300
     39 H39        -7.4210   -0.2072   65.1103 H       1  ZINC000533037883    0.1300
     40 H40        -9.6477    0.8245   64.9258 H       1  ZINC000533037883    0.1400
     41 H41       -13.6390    2.7412   63.8134 H       1  ZINC000533037883    0.1900
     42 H42       -15.8699   -2.7613   59.3475 H       1  ZINC000533037883    0.0700
     43 H43       -16.6709   -1.3928   58.5333 H       1  ZINC000533037883    0.0800
     44 H44       -15.7814   -3.1169   56.9243 H       1  ZINC000533037883    0.0800
     45 H45       -15.0708   -1.5022   56.6828 H       1  ZINC000533037883    0.0700
     46 H46       -13.8021   -3.7709   58.2836 H       1  ZINC000533037883    0.0700
     47 H47       -13.3321   -3.2834   56.6377 H       1  ZINC000533037883    0.0700
     48 H48       -11.1996   -4.1766   57.0548 H       1  ZINC000533037883    0.0800
     49 H49       -11.2892   -2.6102   56.1792 H       1  ZINC000533037883    0.0800
     50 H50        -8.9801   -3.7321   57.8591 H       1  ZINC000533037883    0.0600
     51 H51        -8.9079   -2.9847   56.2346 H       1  ZINC000533037883    0.0900
     52 H52       -10.7891   -0.3613   58.1606 H       1  ZINC000533037883    0.0700
     53 H53       -10.1410   -1.1813   59.6071 H       1  ZINC000533037883    0.0700
     54 H54       -12.7863   -0.5531   59.8830 H       1  ZINC000533037883    0.1000
     55 H55       -13.3406   -2.2118   60.2279 H       1  ZINC000533037883    0.0700
@<TRIPOS>BOND
     1     1     2    2
     2     2     3   am
     3     2    17   am
     4     3     4    1
     5     3    30    1
     6     4     5    1
     7     4    31    1
     8     4    32    1
     9     5     6    1
    10     5    33    1
    11     5    34    1
    12     6    16    1
    13     6     7    2
    14     7     8    1
    15     7    35    1
    16     8     9    1
    17     8    15    1
    18     9    14   ar
    19     9    10   ar
    20    10    11   ar
    21    10    36    1
    22    11    12   ar
    23    11    37    1
    24    12    13   ar
    25    12    38    1
    26    13    14   ar
    27    13    39    1
    28    14    40    1
    29    15    16    2
    30    16    41    1
    31    17    29    1
    32    17    18    1
    33    18    19    1
    34    18    42    1
    35    18    43    1
    36    19    20    1
    37    19    44    1
    38    19    45    1
    39    20    21    1
    40    20    46    1
    41    20    47    1
    42    21    22    1
    43    21    23    1
    44    21    29    1
    45    23    24    1
    46    23    28    1
    47    23    25    1
    48    25    26    1
    49    25    48    1
    50    25    49    1
    51    26    27    1
    52    26    50    1
    53    26    51    1
    54    27    28    1
    55    28    52    1
    56    28    53    1
    57    29    54    1
    58    29    55    1
@<TRIPOS>SUBSTRUCTURE
     1 ZINC000533037883        1 TEMP              0 ****  ****    0 ROOT


##########                                Name:    ZINC001061022329
##########                DOCK_Rotatable_Bonds:                   7
##########                         Heavy_Atoms:                  27
##########                    Molecular_Weight:             374.523
##########                DOCK_Rotatable_Bonds:                   7
##########                       Formal_Charge:           0.0800005
##########                     HBond_Acceptors:                   5
##########                        HBond_Donors:                   0
##########                         Heavy_Atoms:                  27
##########                          Grid_Score:          -28.681475
##########                     Grid_vdw_energy:          -28.513081
##########                      Grid_es_energy:           -0.168393
##########           Internal_energy_repulsive:           18.122791

@<TRIPOS>MOLECULE
ZINC001061022329
 61 64 1 0 0
SMALL
USER_CHARGES


@<TRIPOS>ATOM
      1 C1         -2.5501    3.7089   53.1496 C.3     1  ZINC001061022329   -0.1500
      2 C2         -3.5542    2.8864   52.3394 C.3     1  ZINC001061022329   -0.1200
      3 C3         -4.9205    2.9288   53.0267 C.3     1  ZINC001061022329    0.0800
      4 H4         -4.7891    2.8204   54.1033 H       1  ZINC001061022329    0.0600
      5 C5         -5.6003    4.2665   52.7280 C.3     1  ZINC001061022329   -0.1800
      6 O6         -5.7338    1.8610   52.5363 O.3     1  ZINC001061022329   -0.3500
      7 C7         -6.9789    1.7163   53.2223 C.3     1  ZINC001061022329    0.0500
      8 C8         -7.5007    0.3162   53.0264 C.2     1  ZINC001061022329    0.5200
      9 O9         -6.9302   -0.4436   52.2726 O.2     1  ZINC001061022329   -0.5100
     10 N10        -8.6012   -0.0916   53.6888 N.am    1  ZINC001061022329   -0.6100
     11 C11        -9.1162   -1.4554   53.5089 C.3     1  ZINC001061022329    0.1100
     12 C12       -10.5834   -1.3747   53.0710 C.3     1  ZINC001061022329   -0.1200
     13 C13       -11.3499   -0.4906   54.0517 C.3     1  ZINC001061022329   -0.0900
     14 C14       -12.8702   -0.5144   53.8422 C.3     1  ZINC001061022329    0.1200
     15 N15       -12.9676   -0.5788   55.3143 N.am    1  ZINC001061022329   -0.6400
     16 C16       -13.9132   -0.2411   56.2133 C.2     1  ZINC001061022329    0.5400
     17 O17       -14.9651    0.2319   55.8385 O.2     1  ZINC001061022329   -0.5300
     18 C18       -13.6632   -0.4514   57.6846 C.3     1  ZINC001061022329   -0.0900
     19 H19       -12.7461    0.0617   57.9740 H       1  ZINC001061022329    0.1000
     20 C20       -13.5215   -1.9484   57.9688 C.3     1  ZINC001061022329   -0.1000
     21 C21       -14.6037   -2.3867   58.9637 C.3     1  ZINC001061022329   -0.0600
     22 H22       -14.5534   -3.4611   59.1409 H       1  ZINC001061022329    0.0800
     23 C23       -15.9555   -1.9983   58.3834 C.2     1  ZINC001061022329   -0.1800
     24 C24       -16.0788   -0.6964   58.1361 C.2     1  ZINC001061022329   -0.1300
     25 C25       -14.8408    0.1142   58.4888 C.3     1  ZINC001061022329   -0.0400
     26 H26       -14.9964    1.1712   58.2732 H       1  ZINC001061022329    0.0900
     27 C27       -14.5529   -0.1001   59.9812 C.3     1  ZINC001061022329   -0.1100
     28 C28       -14.4001   -1.6094   60.2715 C.3     1  ZINC001061022329   -0.1100
     29 C29       -11.6144   -1.1624   55.4063 C.3     1  ZINC001061022329    0.1100
     30 C30       -10.7710    0.9170   54.1709 C.3     1  ZINC001061022329   -0.1100
     31 C31        -9.2991    0.8193   54.6057 C.3     1  ZINC001061022329    0.1100
     32 H32        -2.8931    4.7416   53.2126 H       1  ZINC001061022329    0.0500
     33 H33        -2.4650    3.2923   54.1531 H       1  ZINC001061022329    0.0600
     34 H34        -1.5767    3.6787   52.6599 H       1  ZINC001061022329    0.0600
     35 H35        -3.6392    3.3030   51.3357 H       1  ZINC001061022329    0.0800
     36 H36        -3.2111    1.8538   52.2763 H       1  ZINC001061022329    0.0700
     37 H37        -6.5737    4.2966   53.2176 H       1  ZINC001061022329    0.0600
     38 H38        -4.9801    5.0809   53.1021 H       1  ZINC001061022329    0.0700
     39 H39        -5.7318    4.3748   51.6514 H       1  ZINC001061022329    0.0700
     40 H40        -6.8316    1.9036   54.2860 H       1  ZINC001061022329    0.0800
     41 H41        -7.6986    2.4314   52.8237 H       1  ZINC001061022329    0.0800
     42 H42        -8.5338   -1.9678   52.7430 H       1  ZINC001061022329    0.0900
     43 H43        -9.0452   -2.0001   54.4504 H       1  ZINC001061022329    0.0800
     44 H44       -10.6422   -0.9455   52.0708 H       1  ZINC001061022329    0.0800
     45 H45       -11.0176   -2.3746   53.0657 H       1  ZINC001061022329    0.0800
     46 H46       -13.2697    0.4054   53.4149 H       1  ZINC001061022329    0.0800
     47 H47       -13.2307   -1.4110   53.3380 H       1  ZINC001061022329    0.0900
     48 H48       -13.6349   -2.5067   57.0395 H       1  ZINC001061022329    0.0700
     49 H49       -12.5370   -2.1458   58.3929 H       1  ZINC001061022329    0.0700
     50 H50       -16.7420   -2.7127   58.1900 H       1  ZINC001061022329    0.1200
     51 H51       -16.9744   -0.2563   57.7231 H       1  ZINC001061022329    0.1200
     52 H52       -13.6274    0.4095   60.2493 H       1  ZINC001061022329    0.0700
     53 H53       -15.3746    0.3054   60.5715 H       1  ZINC001061022329    0.0700
     54 H54       -15.1533   -1.9178   60.9965 H       1  ZINC001061022329    0.0700
     55 H55       -13.4065   -1.8026   60.6759 H       1  ZINC001061022329    0.0700
     56 H56       -11.6016   -2.2517   55.3669 H       1  ZINC001061022329    0.0900
     57 H57       -11.0155   -0.7577   56.2222 H       1  ZINC001061022329    0.0800
     58 H58       -10.8358    1.4207   53.2065 H       1  ZINC001061022329    0.0800
     59 H59       -11.3330    1.4803   54.9159 H       1  ZINC001061022329    0.0800
     60 H60        -9.2436    0.4346   55.6240 H       1  ZINC001061022329    0.0700
     61 H61        -8.8383    1.8060   54.5599 H       1  ZINC001061022329    0.1000
@<TRIPOS>BOND
     1     1     2    1
     2     1    32    1
     3     1    33    1
     4     1    34    1
     5     2     3    1
     6     2    35    1
     7     2    36    1
     8     3     4    1
     9     3     5    1
    10     3     6    1
    11     5    37    1
    12     5    38    1
    13     5    39    1
    14     6     7    1
    15     7     8    1
    16     7    40    1
    17     7    41    1
    18     8     9    2
    19     8    10   am
    20    10    31    1
    21    10    11    1
    22    11    12    1
    23    11    42    1
    24    11    43    1
    25    12    13    1
    26    12    44    1
    27    12    45    1
    28    13    29    1
    29    13    14    1
    30    13    30    1
    31    14    15    1
    32    14    46    1
    33    14    47    1
    34    15    16   am
    35    15    29    1
    36    16    17    2
    37    16    18    1
    38    18    19    1
    39    18    25    1
    40    18    20    1
    41    20    21    1
    42    20    48    1
    43    20    49    1
    44    21    22    1
    45    21    28    1
    46    21    23    1
    47    23    24    2
    48    23    50    1
    49    24    25    1
    50    24    51    1
    51    25    26    1
    52    25    27    1
    53    27    28    1
    54    27    52    1
    55    27    53    1
    56    28    54    1
    57    28    55    1
    58    29    56    1
    59    29    57    1
    60    30    31    1
    61    30    58    1
    62    30    59    1
    63    31    60    1
    64    31    61    1
@<TRIPOS>SUBSTRUCTURE
     1 ZINC001061022329        1 TEMP              0 ****  ****    0 ROOT


##########                                Name:    ZINC000265724350
##########                DOCK_Rotatable_Bonds:                   8
##########                         Heavy_Atoms:                  23
##########                    Molecular_Weight:              345.42
##########                DOCK_Rotatable_Bonds:                   8
##########                       Formal_Charge:          -0.0300002
##########                     HBond_Acceptors:                   9
##########                        HBond_Donors:                   2
##########                         Heavy_Atoms:                  23
##########                          Grid_Score:          -28.677263
##########                     Grid_vdw_energy:          -28.085144
##########                      Grid_es_energy:           -0.592120
##########           Internal_energy_repulsive:            6.828518

@<TRIPOS>MOLECULE
ZINC000265724350
 46 47 1 0 0
SMALL
USER_CHARGES


@<TRIPOS>ATOM
      1 C1         -6.2245   -0.9639   52.1938 C.3     1  ZINC000265724350    0.0800
      2 N2         -5.4869    0.2418   52.5790 N.am    1  ZINC000265724350   -1.1100
      3 S3         -6.1236    1.7378   52.2646 S.o2    1  ZINC000265724350    2.7200
      4 O4         -5.2594    2.6801   52.8848 O.2     1  ZINC000265724350   -0.9300
      5 O5         -6.4301    1.7600   50.8773 O.2     1  ZINC000265724350   -0.9300
      6 C6         -7.6630    1.8388   53.1159 C.2     1  ZINC000265724350   -0.5600
      7 C7         -8.6531    2.7192   52.8499 C.2     1  ZINC000265724350   -0.0900
      8 C8         -9.6936    2.4565   53.7546 C.2     1  ZINC000265724350   -0.1400
      9 C9         -9.2804    1.4162   54.5367 C.2     1  ZINC000265724350   -0.0200
     10 C10       -10.0459    0.7991   55.6249 C.2     1  ZINC000265724350    0.6000
     11 O11       -11.1086    1.2810   55.9707 O.2     1  ZINC000265724350   -0.5000
     12 N12        -9.5725   -0.3016   56.2419 N.am    1  ZINC000265724350   -0.7100
     13 C13       -10.3380   -0.9190   57.3278 C.3     1  ZINC000265724350    0.1200
     14 C14       -11.0592   -2.1613   56.8011 C.3     1  ZINC000265724350   -0.1100
     15 H15       -11.5744   -1.9160   55.8724 H       1  ZINC000265724350    0.0800
     16 C16       -10.0389   -3.2712   56.5405 C.3     1  ZINC000265724350   -0.1400
     17 C17       -12.0776   -2.6380   57.8386 C.3     1  ZINC000265724350    0.0600
     18 N18       -13.4358   -2.4701   57.3047 N.3     1  ZINC000265724350   -0.5300
     19 C19       -13.9263   -1.1031   57.5327 C.3     1  ZINC000265724350    0.0100
     20 C20       -15.3169   -0.9551   56.9098 C.3     1  ZINC000265724350    0.0600
     21 O21       -16.1898   -1.9430   57.4643 O.3     1  ZINC000265724350   -0.3900
     22 C22       -15.7428   -3.2860   57.2601 C.3     1  ZINC000265724350    0.0600
     23 C23       -14.3565   -3.4576   57.8865 C.3     1  ZINC000265724350    0.0200
     24 O24        -8.0469    1.0519   54.1294 O.3     1  ZINC000265724350   -0.1100
     25 H25        -5.6525   -1.8467   52.4796 H       1  ZINC000265724350    0.0900
     26 H26        -7.1897   -0.9768   52.7003 H       1  ZINC000265724350    0.0600
     27 H27        -6.3803   -0.9654   51.1150 H       1  ZINC000265724350    0.0700
     28 H28        -4.6255    0.1638   53.0182 H       1  ZINC000265724350    0.4200
     29 H29        -8.6452    3.4816   52.0850 H       1  ZINC000265724350    0.1800
     30 H30       -10.6378    2.9765   53.8197 H       1  ZINC000265724350    0.1700
     31 H31        -8.7250   -0.6849   55.9671 H       1  ZINC000265724350    0.4100
     32 H32        -9.6610   -1.2057   58.1324 H       1  ZINC000265724350    0.0800
     33 H33       -11.0709   -0.2065   57.7063 H       1  ZINC000265724350    0.0700
     34 H34        -9.3134   -2.9316   55.8013 H       1  ZINC000265724350    0.0500
     35 H35        -9.5238   -3.5166   57.4693 H       1  ZINC000265724350    0.0600
     36 H36       -10.5527   -4.1562   56.1653 H       1  ZINC000265724350    0.0700
     37 H37       -11.9028   -3.6903   58.0625 H       1  ZINC000265724350    0.0800
     38 H38       -11.9702   -2.0499   58.7501 H       1  ZINC000265724350    0.0400
     39 H39       -13.9851   -0.9114   58.6041 H       1  ZINC000265724350    0.0400
     40 H40       -13.2432   -0.3896   57.0717 H       1  ZINC000265724350    0.0900
     41 H41       -15.7085    0.0390   57.1256 H       1  ZINC000265724350    0.1000
     42 H42       -15.2490   -1.0938   55.8307 H       1  ZINC000265724350    0.0600
     43 H43       -16.4424   -3.9777   57.7292 H       1  ZINC000265724350    0.1000
     44 H44       -15.6873   -3.4926   56.1912 H       1  ZINC000265724350    0.0600
     45 H45       -13.9874   -4.4630   57.6838 H       1  ZINC000265724350    0.0900
     46 H46       -14.4222   -3.3036   58.9636 H       1  ZINC000265724350    0.0400
@<TRIPOS>BOND
     1     1     2    1
     2     1    25    1
     3     1    26    1
     4     1    27    1
     5     2     3   am
     6     2    28    1
     7     3     4    2
     8     3     5    2
     9     3     6    1
    10     6    24    1
    11     6     7    2
    12     7     8    1
    13     7    29    1
    14     8     9    2
    15     8    30    1
    16     9    10    1
    17     9    24    1
    18    10    11    2
    19    10    12   am
    20    12    13    1
    21    12    31    1
    22    13    14    1
    23    13    32    1
    24    13    33    1
    25    14    15    1
    26    14    16    1
    27    14    17    1
    28    16    34    1
    29    16    35    1
    30    16    36    1
    31    17    18    1
    32    17    37    1
    33    17    38    1
    34    18    23    1
    35    18    19    1
    36    19    20    1
    37    19    39    1
    38    19    40    1
    39    20    21    1
    40    20    41    1
    41    20    42    1
    42    21    22    1
    43    22    23    1
    44    22    43    1
    45    22    44    1
    46    23    45    1
    47    23    46    1
@<TRIPOS>SUBSTRUCTURE
     1 ZINC000265724350        1 TEMP              0 ****  ****    0 ROOT


##########                                Name:    ZINC000546115054
##########                DOCK_Rotatable_Bonds:                  10
##########                         Heavy_Atoms:                  26
##########                    Molecular_Weight:             363.457
##########                DOCK_Rotatable_Bonds:                  10
##########                       Formal_Charge:        -4.39584e-07
##########                     HBond_Acceptors:                   7
##########                        HBond_Donors:                   2
##########                         Heavy_Atoms:                  26
##########                          Grid_Score:          -28.671429
##########                     Grid_vdw_energy:          -28.285250
##########                      Grid_es_energy:           -0.386179
##########           Internal_energy_repulsive:           35.397831

@<TRIPOS>MOLECULE
ZINC000546115054
 55 56 1 0 0
SMALL
USER_CHARGES


@<TRIPOS>ATOM
      1 C1         -9.4412   -2.0150   57.2727 C.3     1  ZINC000546115054   -0.1500
      2 C2         -8.7908   -1.1068   58.3182 C.3     1  ZINC000546115054    0.0600
      3 O3         -8.7450    0.2329   57.8229 O.3     1  ZINC000546115054   -0.3700
      4 C4         -7.6834    1.0184   58.3688 C.3     1  ZINC000546115054    0.0500
      5 H5         -6.7598    0.4397   58.3587 H       1  ZINC000546115054    0.0700
      6 C6         -8.0254    1.4110   59.8084 C.3     1  ZINC000546115054    0.0400
      7 O7         -6.9896    2.2443   60.3324 O.3     1  ZINC000546115054   -0.3700
      8 C8         -6.8071    3.4680   59.6172 C.3     1  ZINC000546115054    0.0600
      9 C9         -6.4162    3.1580   58.1699 C.3     1  ZINC000546115054   -0.1600
     10 C10        -7.5018    2.2871   57.5299 C.3     1  ZINC000546115054    0.1700
     11 H11        -8.4410    2.8394   57.4986 H       1  ZINC000546115054    0.1000
     12 N12        -7.1003    1.9254   56.1682 N.am    1  ZINC000546115054   -0.7300
     13 C13        -7.3966    2.7431   55.1386 C.2     1  ZINC000546115054    0.7200
     14 O14        -7.9984    3.7803   55.3398 O.2     1  ZINC000546115054   -0.5900
     15 N15        -7.0258    2.4111   53.8861 N.am    1  ZINC000546115054   -0.7200
     16 C16        -7.3495    3.2991   52.7667 C.3     1  ZINC000546115054    0.1600
     17 H17        -7.1728    4.3337   53.0609 H       1  ZINC000546115054    0.1200
     18 C18        -6.4647    2.9516   51.5678 C.3     1  ZINC000546115054   -0.1000
     19 C19        -5.0157    3.0236   51.9752 C.ar    1  ZINC000546115054   -0.0800
     20 C20        -4.0917    2.1740   51.3960 C.ar    1  ZINC000546115054   -0.1100
     21 C21        -2.7626    2.2402   51.7698 C.ar    1  ZINC000546115054   -0.1200
     22 C22        -2.3572    3.1560   52.7224 C.ar    1  ZINC000546115054   -0.1200
     23 C23        -3.2809    4.0062   53.3010 C.ar    1  ZINC000546115054   -0.1200
     24 C24        -4.6094    3.9432   52.9241 C.ar    1  ZINC000546115054   -0.1100
     25 C25        -8.7980    3.1244   52.3895 C.2     1  ZINC000546115054    0.5000
     26 O26        -9.4901    2.3313   52.9919 O.2     1  ZINC000546115054   -0.5200
     27 N27        -9.3244    3.8496   51.3827 N.am    1  ZINC000546115054   -0.6200
     28 C28        -8.4889    4.8089   50.6563 C.3     1  ZINC000546115054    0.0800
     29 C29       -10.7321    3.6784   51.0150 C.3     1  ZINC000546115054    0.0700
     30 H30        -9.4761   -3.0369   57.6505 H       1  ZINC000546115054    0.0700
     31 H31       -10.4543   -1.6679   57.0697 H       1  ZINC000546115054    0.0600
     32 H32        -8.8566   -1.9874   56.3532 H       1  ZINC000546115054    0.0600
     33 H33        -9.3755   -1.1344   59.2377 H       1  ZINC000546115054    0.0500
     34 H34        -7.7777   -1.4539   58.5212 H       1  ZINC000546115054    0.0500
     35 H35        -8.9706    1.9537   59.8224 H       1  ZINC000546115054    0.0600
     36 H36        -8.1130    0.5124   60.4192 H       1  ZINC000546115054    0.1000
     37 H37        -7.7364    4.0377   59.6287 H       1  ZINC000546115054    0.0600
     38 H38        -6.0172    4.0512   60.0902 H       1  ZINC000546115054    0.1000
     39 H39        -6.3198    4.0890   57.6113 H       1  ZINC000546115054    0.0900
     40 H40        -5.4664    2.6235   58.1557 H       1  ZINC000546115054    0.0800
     41 H41        -6.6213    1.0974   56.0076 H       1  ZINC000546115054    0.3900
     42 H42        -6.5447    1.5842   53.7258 H       1  ZINC000546115054    0.4000
     43 H43        -6.6963    1.9429   51.2257 H       1  ZINC000546115054    0.0900
     44 H44        -6.6511    3.6606   50.7612 H       1  ZINC000546115054    0.1100
     45 H45        -4.4085    1.4585   50.6517 H       1  ZINC000546115054    0.1200
     46 H46        -2.0408    1.5759   51.3178 H       1  ZINC000546115054    0.1200
     47 H47        -1.3188    3.2072   53.0149 H       1  ZINC000546115054    0.1200
     48 H48        -2.9642    4.7217   54.0455 H       1  ZINC000546115054    0.1200
     49 H49        -5.3311    4.6074   53.3762 H       1  ZINC000546115054    0.1200
     50 H50        -8.0178    4.3115   49.8085 H       1  ZINC000546115054    0.0600
     51 H51        -9.1080    5.6310   50.2972 H       1  ZINC000546115054    0.0700
     52 H52        -7.7192    5.1980   51.3228 H       1  ZINC000546115054    0.0800
     53 H53       -11.3451    4.3713   51.5913 H       1  ZINC000546115054    0.0600
     54 H54       -10.8570    3.8813   49.9513 H       1  ZINC000546115054    0.0800
     55 H55       -11.0417    2.6554   51.2285 H       1  ZINC000546115054    0.0700
@<TRIPOS>BOND
     1     1     2    1
     2     1    30    1
     3     1    31    1
     4     1    32    1
     5     2     3    1
     6     2    33    1
     7     2    34    1
     8     3     4    1
     9     4     5    1
    10     4    10    1
    11     4     6    1
    12     6     7    1
    13     6    35    1
    14     6    36    1
    15     7     8    1
    16     8     9    1
    17     8    37    1
    18     8    38    1
    19     9    10    1
    20     9    39    1
    21     9    40    1
    22    10    11    1
    23    10    12    1
    24    12    13   am
    25    12    41    1
    26    13    14    2
    27    13    15   am
    28    15    16    1
    29    15    42    1
    30    16    17    1
    31    16    18    1
    32    16    25    1
    33    18    19    1
    34    18    43    1
    35    18    44    1
    36    19    24   ar
    37    19    20   ar
    38    20    21   ar
    39    20    45    1
    40    21    22   ar
    41    21    46    1
    42    22    23   ar
    43    22    47    1
    44    23    24   ar
    45    23    48    1
    46    24    49    1
    47    25    26    2
    48    25    27   am
    49    27    28    1
    50    27    29    1
    51    28    50    1
    52    28    51    1
    53    28    52    1
    54    29    53    1
    55    29    54    1
    56    29    55    1
@<TRIPOS>SUBSTRUCTURE
     1 ZINC000546115054        1 TEMP              0 ****  ****    0 ROOT


##########                                Name:    ZINC000898967786
##########                DOCK_Rotatable_Bonds:                   5
##########                         Heavy_Atoms:                  25
##########                    Molecular_Weight:             356.448
##########                DOCK_Rotatable_Bonds:                   5
##########                       Formal_Charge:        -2.38419e-07
##########                     HBond_Acceptors:                   7
##########                        HBond_Donors:                   1
##########                         Heavy_Atoms:                  25
##########                          Grid_Score:          -28.660982
##########                     Grid_vdw_energy:          -28.323732
##########                      Grid_es_energy:           -0.337249
##########           Internal_energy_repulsive:           11.191869

@<TRIPOS>MOLECULE
ZINC000898967786
 45 48 1 0 0
SMALL
USER_CHARGES


@<TRIPOS>ATOM
      1 C1        -10.2568   -1.5816   53.6989 C.3     1  ZINC000898967786   -0.0800
      2 C2         -9.0585   -0.6994   53.4607 C.2     1  ZINC000898967786    0.0900
      3 C3         -8.8393    0.5040   54.0346 C.2     1  ZINC000898967786   -0.1000
      4 C4         -9.7403    1.2024   55.0201 C.3     1  ZINC000898967786    0.2200
      5 N5         -9.7607    0.4534   56.2790 N.am    1  ZINC000898967786   -0.7400
      6 C6         -8.9615    0.8264   57.2981 C.2     1  ZINC000898967786    0.7100
      7 O7         -8.2236    1.7845   57.1727 O.2     1  ZINC000898967786   -0.5800
      8 N8         -8.9804    0.1372   58.4562 N.am    1  ZINC000898967786   -0.6300
      9 C9         -9.8650   -1.0256   58.6313 C.3     1  ZINC000898967786    0.0900
     10 C10       -10.6464   -0.8463   59.9379 C.3     1  ZINC000898967786    0.0500
     11 O11        -9.7295   -0.5801   61.0020 O.3     1  ZINC000898967786   -0.3700
     12 C12        -8.9834    0.6289   60.8430 C.3     1  ZINC000898967786    0.1400
     13 H13        -9.6697    1.4700   60.7446 H       1  ZINC000898967786    0.0700
     14 C14        -8.1006    0.8376   62.0463 C.2     1  ZINC000898967786   -0.1100
     15 C15        -7.0277    1.6298   62.0202 C.2     1  ZINC000898967786   -0.1800
     16 S16        -6.2521    1.6244   63.5988 S.3     1  ZINC000898967786    0.1100
     17 C17        -7.4644    0.5139   64.2239 C.2     1  ZINC000898967786   -0.2100
     18 C18        -8.3450    0.2265   63.2641 C.2     1  ZINC000898967786   -0.1300
     19 C19        -8.1127    0.5217   59.5808 C.3     1  ZINC000898967786    0.0900
     20 N20        -7.6458    0.9696   53.5538 N.pl3   1  ZINC000898967786   -0.3500
     21 C21        -6.9410    2.1153   53.7850 C.2     1  ZINC000898967786    0.0600
     22 C22        -5.7618    2.3334   53.1662 C.2     1  ZINC000898967786   -0.1400
     23 C23        -5.2433    1.3813   52.2729 C.2     1  ZINC000898967786   -0.1000
     24 C24        -5.9356    0.2351   52.0333 C.2     1  ZINC000898967786   -0.0800
     25 C25        -7.1654    0.0217   52.6878 C.2     1  ZINC000898967786    0.2400
     26 N26        -8.0337   -0.9792   52.6520 N.2     1  ZINC000898967786   -0.4900
     27 H27       -10.0549   -2.2506   54.5354 H       1  ZINC000898967786    0.0800
     28 H28       -11.1237   -0.9625   53.9297 H       1  ZINC000898967786    0.0700
     29 H29       -10.4584   -2.1699   52.8037 H       1  ZINC000898967786    0.0800
     30 H30        -9.3671    2.2101   55.2029 H       1  ZINC000898967786    0.1000
     31 H31       -10.7501    1.2572   54.6135 H       1  ZINC000898967786    0.0700
     32 H32       -10.3494   -0.3111   56.3789 H       1  ZINC000898967786    0.4000
     33 H33       -10.5596   -1.0878   57.7937 H       1  ZINC000898967786    0.1100
     34 H34        -9.2683   -1.9364   58.6825 H       1  ZINC000898967786    0.0800
     35 H35       -11.3387   -0.0105   59.8363 H       1  ZINC000898967786    0.0600
     36 H36       -11.2037   -1.7571   60.1568 H       1  ZINC000898967786    0.1100
     37 H37        -6.6870    2.1886   61.1612 H       1  ZINC000898967786    0.1700
     38 H38        -7.4940    0.1276   65.2320 H       1  ZINC000898967786    0.1700
     39 H39        -9.1805   -0.4390   63.4227 H       1  ZINC000898967786    0.1400
     40 H40        -7.3405   -0.2329   59.7305 H       1  ZINC000898967786    0.0800
     41 H41        -7.6489    1.4857   59.3717 H       1  ZINC000898967786    0.0900
     42 H42        -7.3309    2.8542   54.4695 H       1  ZINC000898967786    0.1600
     43 H43        -5.2142    3.2443   53.3583 H       1  ZINC000898967786    0.1500
     44 H44        -4.2998    1.5586   51.7784 H       1  ZINC000898967786    0.1500
     45 H45        -5.5468   -0.5038   51.3483 H       1  ZINC000898967786    0.1500
@<TRIPOS>BOND
     1     1     2    1
     2     1    27    1
     3     1    28    1
     4     1    29    1
     5     2    26    1
     6     2     3    2
     7     3     4    1
     8     3    20    1
     9     4     5    1
    10     4    30    1
    11     4    31    1
    12     5     6   am
    13     5    32    1
    14     6     7    2
    15     6     8   am
    16     8    19    1
    17     8     9    1
    18     9    10    1
    19     9    33    1
    20     9    34    1
    21    10    11    1
    22    10    35    1
    23    10    36    1
    24    11    12    1
    25    12    13    1
    26    12    14    1
    27    12    19    1
    28    14    18    1
    29    14    15    2
    30    15    16    1
    31    15    37    1
    32    16    17    1
    33    17    18    2
    34    17    38    1
    35    18    39    1
    36    19    40    1
    37    19    41    1
    38    20    25    1
    39    20    21    1
    40    21    22    2
    41    21    42    1
    42    22    23    1
    43    22    43    1
    44    23    24    2
    45    23    44    1
    46    24    25    1
    47    24    45    1
    48    25    26    2
@<TRIPOS>SUBSTRUCTURE
     1 ZINC000898967786        1 TEMP              0 ****  ****    0 ROOT


##########                                Name:    ZINC000466160459
##########                DOCK_Rotatable_Bonds:                   9
##########                         Heavy_Atoms:                  30
##########                    Molecular_Weight:             420.512
##########                DOCK_Rotatable_Bonds:                   9
##########                       Formal_Charge:          -0.0300007
##########                     HBond_Acceptors:                  10
##########                        HBond_Donors:                   2
##########                         Heavy_Atoms:                  30
##########                          Grid_Score:          -28.660110
##########                     Grid_vdw_energy:          -28.623650
##########                      Grid_es_energy:           -0.036461
##########           Internal_energy_repulsive:           99.260345

@<TRIPOS>MOLECULE
ZINC000466160459
 62 64 1 0 0
SMALL
USER_CHARGES


@<TRIPOS>ATOM
      1 C1        -10.8741   -3.9771   57.7847 C.3     1  ZINC000466160459    0.0300
      2 O2        -10.7475   -2.5803   58.0586 O.3     1  ZINC000466160459   -0.3900
      3 C3        -11.3847   -2.1651   59.2683 C.3     1  ZINC000466160459    0.0500
      4 C4        -11.1589   -0.6660   59.4751 C.3     1  ZINC000466160459    0.1200
      5 N5         -9.7217   -0.3964   59.5647 N.am    1  ZINC000466160459   -0.7300
      6 C6         -9.1409   -0.2307   60.7695 C.2     1  ZINC000466160459    0.5200
      7 O7         -9.8079   -0.3061   61.7797 O.2     1  ZINC000466160459   -0.5200
      8 C8         -7.6628    0.0484   60.8615 C.3     1  ZINC000466160459   -0.1300
      9 H9         -7.1174   -0.8938   60.9157 H       1  ZINC000466160459    0.1100
     10 C10        -7.3766    0.8773   62.1158 C.3     1  ZINC000466160459   -0.1000
     11 C11        -8.1682    2.1856   62.0564 C.3     1  ZINC000466160459   -0.1500
     12 C12        -7.7232    2.9919   60.8321 C.3     1  ZINC000466160459    0.1600
     13 H13        -6.6822    3.2922   60.9511 H       1  ZINC000466160459    0.0700
     14 C14        -8.6028    4.2356   60.6898 C.3     1  ZINC000466160459   -0.1400
     15 N15        -7.8593    2.1494   59.6361 N.am    1  ZINC000466160459   -0.6200
     16 C16        -8.5641    2.5786   58.5704 C.2     1  ZINC000466160459    0.7100
     17 O17        -9.0945    3.6724   58.5929 O.2     1  ZINC000466160459   -0.5500
     18 N18        -8.6807    1.7954   57.4799 N.am    1  ZINC000466160459   -0.7300
     19 C19        -9.4467    2.2618   56.3215 C.3     1  ZINC000466160459    0.1600
     20 H20       -10.0169    3.1488   56.5979 H       1  ZINC000466160459    0.1300
     21 C21       -10.4080    1.1595   55.8702 C.3     1  ZINC000466160459   -0.1400
     22 C22        -9.5878    0.0336   55.2292 C.3     1  ZINC000466160459   -0.1400
     23 C23        -8.9800    0.5518   53.9252 C.3     1  ZINC000466160459    0.1100
     24 N24        -8.2919    1.8168   54.1504 N.am    1  ZINC000466160459   -0.5200
     25 C25        -7.3499    2.2307   53.1989 C.2     1  ZINC000466160459    0.2800
     26 N26        -6.2357    1.6075   52.8956 N.2     1  ZINC000466160459   -0.2600
     27 N27        -5.5797    2.3445   51.9013 N.pl3   1  ZINC000466160459   -0.3800
     28 C28        -4.2996    1.9996   51.2778 C.3     1  ZINC000466160459    0.1000
     29 C29        -6.3334    3.4276   51.6177 C.2     1  ZINC000466160459    0.0700
     30 C30        -7.4363    3.3815   52.3991 C.2     1  ZINC000466160459   -0.2900
     31 C31        -8.5031    2.6035   55.2042 C.2     1  ZINC000466160459    0.4900
     32 O32        -7.9012    3.6547   55.2656 O.2     1  ZINC000466160459   -0.4700
     33 C33        -7.2120    0.8297   59.6233 C.3     1  ZINC000466160459    0.1200
     34 H34       -10.3641   -4.2119   56.8504 H       1  ZINC000466160459    0.0900
     35 H35       -10.4254   -4.5487   58.5971 H       1  ZINC000466160459    0.0400
     36 H36       -11.9293   -4.2361   57.6978 H       1  ZINC000466160459    0.0400
     37 H37       -12.4540   -2.3658   59.2033 H       1  ZINC000466160459    0.0600
     38 H38       -10.9622   -2.7155   60.1089 H       1  ZINC000466160459    0.0700
     39 H39       -11.5800   -0.1157   58.6337 H       1  ZINC000466160459    0.0800
     40 H40       -11.6461   -0.3489   60.3971 H       1  ZINC000466160459    0.0800
     41 H41        -9.1880   -0.3373   58.7568 H       1  ZINC000466160459    0.4000
     42 H42        -7.6738    0.3128   62.9997 H       1  ZINC000466160459    0.0700
     43 H43        -6.3109    1.0996   62.1687 H       1  ZINC000466160459    0.0700
     44 H44        -9.2326    1.9637   61.9786 H       1  ZINC000466160459    0.1000
     45 H45        -7.9821    2.7648   62.9608 H       1  ZINC000466160459    0.0700
     46 H46        -8.5850    4.8017   61.6211 H       1  ZINC000466160459    0.0400
     47 H47        -8.2236    4.8580   59.8792 H       1  ZINC000466160459    0.0800
     48 H48        -9.6262    3.9335   60.4677 H       1  ZINC000466160459    0.0600
     49 H49        -8.2574    0.9227   57.4619 H       1  ZINC000466160459    0.3900
     50 H50       -10.9526    0.7723   56.7314 H       1  ZINC000466160459    0.0900
     51 H51       -11.1115    1.5618   55.1413 H       1  ZINC000466160459    0.0900
     52 H52        -8.7913   -0.2709   55.9083 H       1  ZINC000466160459    0.0700
     53 H53       -10.2363   -0.8166   55.0179 H       1  ZINC000466160459    0.1000
     54 H54        -8.2700   -0.1812   53.5423 H       1  ZINC000466160459    0.0900
     55 H55        -9.7726    0.6985   53.1916 H       1  ZINC000466160459    0.0800
     56 H56        -4.4786    1.3792   50.3996 H       1  ZINC000466160459    0.0700
     57 H57        -3.7835    2.9121   50.9790 H       1  ZINC000466160459    0.0900
     58 H58        -3.6842    1.4511   51.9909 H       1  ZINC000466160459    0.0900
     59 H59        -6.0994    4.1929   50.8926 H       1  ZINC000466160459    0.1800
     60 H60        -8.2376    4.1055   52.4113 H       1  ZINC000466160459    0.1500
     61 H61        -6.1292    0.9537   59.6436 H       1  ZINC000466160459    0.0900
     62 H62        -7.5031    0.2886   58.7230 H       1  ZINC000466160459    0.0700
@<TRIPOS>BOND
     1     1     2    1
     2     1    34    1
     3     1    35    1
     4     1    36    1
     5     2     3    1
     6     3     4    1
     7     3    37    1
     8     3    38    1
     9     4     5    1
    10     4    39    1
    11     4    40    1
    12     5     6   am
    13     5    41    1
    14     6     7    2
    15     6     8    1
    16     8     9    1
    17     8    33    1
    18     8    10    1
    19    10    11    1
    20    10    42    1
    21    10    43    1
    22    11    12    1
    23    11    44    1
    24    11    45    1
    25    12    13    1
    26    12    14    1
    27    12    15    1
    28    14    46    1
    29    14    47    1
    30    14    48    1
    31    15    16   am
    32    15    33    1
    33    16    17    2
    34    16    18   am
    35    18    19    1
    36    18    49    1
    37    19    20    1
    38    19    31    1
    39    19    21    1
    40    21    22    1
    41    21    50    1
    42    21    51    1
    43    22    23    1
    44    22    52    1
    45    22    53    1
    46    23    24    1
    47    23    54    1
    48    23    55    1
    49    24    25    1
    50    24    31   am
    51    25    30    1
    52    25    26    2
    53    26    27    1
    54    27    28    1
    55    27    29    1
    56    28    56    1
    57    28    57    1
    58    28    58    1
    59    29    30    2
    60    29    59    1
    61    30    60    1
    62    31    32    2
    63    33    61    1
    64    33    62    1
@<TRIPOS>SUBSTRUCTURE
     1 ZINC000466160459        1 TEMP              0 ****  ****    0 ROOT


##########                                Name:    ZINC000771225867
##########                DOCK_Rotatable_Bonds:                   9
##########                         Heavy_Atoms:                  23
##########                    Molecular_Weight:             355.802
##########                DOCK_Rotatable_Bonds:                   9
##########                       Formal_Charge:        -3.12924e-07
##########                     HBond_Acceptors:                   9
##########                        HBond_Donors:                   3
##########                         Heavy_Atoms:                  23
##########                          Grid_Score:          -28.647551
##########                     Grid_vdw_energy:          -28.731289
##########                      Grid_es_energy:            0.083738
##########           Internal_energy_repulsive:           11.978695

@<TRIPOS>MOLECULE
ZINC000771225867
 37 38 1 0 0
SMALL
USER_CHARGES


@<TRIPOS>ATOM
      1 C1          2.4213    1.3316   48.7512 C.3     1  ZINC000771225867    0.0400
      2 O2          1.1422    1.6141   49.3223 O.3     1  ZINC000771225867   -0.3600
      3 C3          1.1286    2.2884   50.4914 C.2     1  ZINC000771225867    0.5500
      4 O4          2.1721    2.6800   50.9802 O.2     1  ZINC000771225867   -0.4900
      5 C5         -0.0993    2.5399   51.1489 C.2     1  ZINC000771225867   -0.3400
      6 C6         -0.2857    3.3730   52.2210 C.2     1  ZINC000771225867    0.2700
      7 Cl7         1.0043    4.2738   52.9546 Cl      1  ZINC000771225867    0.0400
      8 N8         -1.5240    3.4285   52.6418 N.2     1  ZINC000771225867   -0.5500
      9 C9         -2.4028    2.7057   52.0080 C.2     1  ZINC000771225867    0.3400
     10 N10        -3.7438    2.6490   52.3196 N.pl3   1  ZINC000771225867   -0.6700
     11 C11        -4.6757    1.9607   51.4230 C.3     1  ZINC000771225867    0.1700
     12 C12        -6.0725    2.0567   51.9803 C.ar    1  ZINC000771225867   -0.0800
     13 C13        -6.7728    3.2451   51.8879 C.ar    1  ZINC000771225867   -0.1300
     14 C14        -8.0548    3.3364   52.3983 C.ar    1  ZINC000771225867   -0.0800
     15 C15        -8.6388    2.2399   53.0021 C.ar    1  ZINC000771225867   -0.2000
     16 C16        -7.9380    1.0460   53.0961 C.ar    1  ZINC000771225867    0.1300
     17 O17        -8.5106   -0.0344   53.6893 O.3     1  ZINC000771225867   -0.2900
     18 C18        -9.8771    0.0924   54.0873 C.3     1  ZINC000771225867    0.0400
     19 C19       -10.3476   -1.2067   54.6891 C.2     1  ZINC000771225867    0.5200
     20 N20       -11.3591   -1.2095   55.5799 N.am    1  ZINC000771225867   -0.8500
     21 O21        -9.8160   -2.2496   54.3718 O.2     1  ZINC000771225867   -0.5200
     22 C22        -6.6544    0.9553   52.5783 C.ar    1  ZINC000771225867   -0.1200
     23 S23        -1.6629    1.8441   50.7309 S.3     1  ZINC000771225867    0.2200
     24 H24         2.9467    2.2665   48.5562 H       1  ZINC000771225867    0.0600
     25 H25         3.0035    0.7257   49.4456 H       1  ZINC000771225867    0.0600
     26 H26         2.2895    0.7870   47.8162 H       1  ZINC000771225867    0.1000
     27 H27        -4.0708    3.0650   53.1326 H       1  ZINC000771225867    0.4200
     28 H28        -4.6445    2.4275   50.4384 H       1  ZINC000771225867    0.0900
     29 H29        -4.3900    0.9123   51.3372 H       1  ZINC000771225867    0.0900
     30 H30        -6.3178    4.1036   51.4165 H       1  ZINC000771225867    0.1300
     31 H31        -8.5997    4.2660   52.3251 H       1  ZINC000771225867    0.1300
     32 H32        -9.6399    2.3119   53.4008 H       1  ZINC000771225867    0.1300
     33 H33        -9.9682    0.8889   54.8257 H       1  ZINC000771225867    0.1000
     34 H34       -10.4883    0.3320   53.2171 H       1  ZINC000771225867    0.1000
     35 H35       -11.6626   -2.0458   55.9664 H       1  ZINC000771225867    0.4000
     36 H36       -11.7834   -0.3753   55.8345 H       1  ZINC000771225867    0.4100
     37 H37        -6.1068    0.0272   52.6503 H       1  ZINC000771225867    0.1400
@<TRIPOS>BOND
     1     1     2    1
     2     1    24    1
     3     1    25    1
     4     1    26    1
     5     2     3    1
     6     3     4    2
     7     3     5    1
     8     5    23    1
     9     5     6    2
    10     6     7    1
    11     6     8    1
    12     8     9    2
    13     9    10    1
    14     9    23    1
    15    10    11    1
    16    10    27    1
    17    11    12    1
    18    11    28    1
    19    11    29    1
    20    12    22   ar
    21    12    13   ar
    22    13    14   ar
    23    13    30    1
    24    14    15   ar
    25    14    31    1
    26    15    16   ar
    27    15    32    1
    28    16    17    1
    29    16    22   ar
    30    17    18    1
    31    18    19    1
    32    18    33    1
    33    18    34    1
    34    19    20   am
    35    19    21    2
    36    20    35    1
    37    20    36    1
    38    22    37    1
@<TRIPOS>SUBSTRUCTURE
     1 ZINC000771225867        1 TEMP              0 ****  ****    0 ROOT


##########                                Name:    ZINC000089894387
##########                DOCK_Rotatable_Bonds:                   8
##########                         Heavy_Atoms:                  22
##########                    Molecular_Weight:             326.823
##########                DOCK_Rotatable_Bonds:                   8
##########                       Formal_Charge:          -0.0300003
##########                     HBond_Acceptors:                   6
##########                        HBond_Donors:                   2
##########                         Heavy_Atoms:                  22
##########                          Grid_Score:          -28.626041
##########                     Grid_vdw_energy:          -29.001131
##########                      Grid_es_energy:            0.375090
##########           Internal_energy_repulsive:           13.039963

@<TRIPOS>MOLECULE
ZINC000089894387
 45 46 1 0 0
SMALL
USER_CHARGES


@<TRIPOS>ATOM
      1 C1        -11.0056   -3.4246   58.0013 C.3     1  ZINC000089894387   -0.1700
      2 C2        -11.8516   -2.1842   57.7070 C.3     1  ZINC000089894387    0.1700
      3 H3        -11.3753   -1.3072   58.1454 H       1  ZINC000089894387    0.0900
      4 N4        -11.9666   -2.0042   56.2577 N.am    1  ZINC000089894387   -0.7400
      5 C5        -10.8899   -1.6328   55.5372 C.2     1  ZINC000089894387    0.7100
      6 O6         -9.8234   -1.4456   56.0903 O.2     1  ZINC000089894387   -0.5900
      7 N7        -10.9953   -1.4687   54.2036 N.am    1  ZINC000089894387   -0.7500
      8 C8         -9.8244   -1.0667   53.4202 C.3     1  ZINC000089894387    0.1400
      9 C9         -9.5041    0.4031   53.6996 C.3     1  ZINC000089894387    0.0500
     10 O10        -8.1478    0.5208   54.1341 O.3     1  ZINC000089894387   -0.3100
     11 C11        -7.4194    1.5427   53.6126 C.ar    1  ZINC000089894387    0.1400
     12 C12        -7.7140    2.8532   53.9590 C.ar    1  ZINC000089894387   -0.2100
     13 C13        -6.9724    3.8909   53.4278 C.ar    1  ZINC000089894387   -0.0700
     14 C14        -5.9370    3.6247   52.5515 C.ar    1  ZINC000089894387   -0.1500
     15 C15        -5.6409    2.3181   52.2036 C.ar    1  ZINC000089894387    0.0000
     16 Cl16       -4.3401    1.9869   51.1028 Cl      1  ZINC000089894387   -0.0600
     17 C17        -6.3764    1.2763   52.7375 C.ar    1  ZINC000089894387   -0.1500
     18 C18       -13.2459   -2.3627   58.3110 C.3     1  ZINC000089894387   -0.1000
     19 C19       -13.9478   -1.0035   58.3904 C.3     1  ZINC000089894387   -0.1600
     20 C20       -15.3697   -1.2025   58.9220 C.3     1  ZINC000089894387    0.0600
     21 O21       -16.0730   -2.1087   58.0698 O.3     1  ZINC000089894387   -0.3800
     22 C22       -15.4889   -3.4107   57.9939 C.3     1  ZINC000089894387    0.0600
     23 C23       -14.0719   -3.3005   57.4250 C.3     1  ZINC000089894387   -0.1500
     24 H24       -11.4820   -4.3016   57.5630 H       1  ZINC000089894387    0.0600
     25 H25       -10.0123   -3.2974   57.5711 H       1  ZINC000089894387    0.0600
     26 H26       -10.9201   -3.5585   59.0797 H       1  ZINC000089894387    0.0700
     27 H27       -12.8178   -2.1524   55.8166 H       1  ZINC000089894387    0.3900
     28 H28       -11.8464   -1.6169   53.7625 H       1  ZINC000089894387    0.4000
     29 H29        -8.9708   -1.6840   53.6997 H       1  ZINC000089894387    0.0800
     30 H30       -10.0352   -1.1971   52.3588 H       1  ZINC000089894387    0.0900
     31 H31        -9.6457    0.9854   52.7891 H       1  ZINC000089894387    0.0900
     32 H32       -10.1687    0.7783   54.4779 H       1  ZINC000089894387    0.0700
     33 H33        -8.5229    3.0623   54.6433 H       1  ZINC000089894387    0.1300
     34 H34        -7.2020    4.9112   53.6972 H       1  ZINC000089894387    0.1400
     35 H35        -5.3586    4.4372   52.1374 H       1  ZINC000089894387    0.1400
     36 H36        -6.1451    0.2569   52.4663 H       1  ZINC000089894387    0.1400
     37 H37       -13.1585   -2.7884   59.3106 H       1  ZINC000089894387    0.0800
     38 H38       -13.3958   -0.3473   59.0633 H       1  ZINC000089894387    0.0700
     39 H39       -13.9896   -0.5565   57.3971 H       1  ZINC000089894387    0.0800
     40 H40       -15.3265   -1.6119   59.9312 H       1  ZINC000089894387    0.0500
     41 H41       -15.8884   -0.2439   58.9403 H       1  ZINC000089894387    0.0900
     42 H42       -15.4473   -3.8490   58.9911 H       1  ZINC000089894387    0.0500
     43 H43       -16.0935   -4.0430   57.3438 H       1  ZINC000089894387    0.1000
     44 H44       -14.1161   -2.8999   56.4123 H       1  ZINC000089894387    0.0800
     45 H45       -13.6086   -4.2870   57.4076 H       1  ZINC000089894387    0.0800
@<TRIPOS>BOND
     1     1     2    1
     2     1    24    1
     3     1    25    1
     4     1    26    1
     5     2     3    1
     6     2     4    1
     7     2    18    1
     8     4     5   am
     9     4    27    1
    10     5     6    2
    11     5     7   am
    12     7     8    1
    13     7    28    1
    14     8     9    1
    15     8    29    1
    16     8    30    1
    17     9    10    1
    18     9    31    1
    19     9    32    1
    20    10    11    1
    21    11    17   ar
    22    11    12   ar
    23    12    13   ar
    24    12    33    1
    25    13    14   ar
    26    13    34    1
    27    14    15   ar
    28    14    35    1
    29    15    16    1
    30    15    17   ar
    31    17    36    1
    32    18    23    1
    33    18    19    1
    34    18    37    1
    35    19    20    1
    36    19    38    1
    37    19    39    1
    38    20    21    1
    39    20    40    1
    40    20    41    1
    41    21    22    1
    42    22    23    1
    43    22    42    1
    44    22    43    1
    45    23    44    1
    46    23    45    1
@<TRIPOS>SUBSTRUCTURE
     1 ZINC000089894387        1 TEMP              0 ****  ****    0 ROOT


##########                                Name:    ZINC000642096826
##########                DOCK_Rotatable_Bonds:                  12
##########                         Heavy_Atoms:                  25
##########                    Molecular_Weight:             345.485
##########                DOCK_Rotatable_Bonds:                  12
##########                       Formal_Charge:          0.00999919
##########                     HBond_Acceptors:                   5
##########                        HBond_Donors:                   1
##########                         Heavy_Atoms:                  25
##########                          Grid_Score:          -28.603586
##########                     Grid_vdw_energy:          -28.986403
##########                      Grid_es_energy:            0.382816
##########           Internal_energy_repulsive:           16.612768

@<TRIPOS>MOLECULE
ZINC000642096826
 56 57 1 0 0
SMALL
USER_CHARGES


@<TRIPOS>ATOM
      1 C1        -14.6806    2.3505   59.5527 C.3     1  ZINC000642096826   -0.1500
      2 C2        -14.1445    1.0723   58.9047 C.3     1  ZINC000642096826   -0.1400
      3 C3        -13.6638    0.1113   59.9938 C.3     1  ZINC000642096826    0.1200
      4 N4        -13.1750   -1.1232   59.3746 N.am    1  ZINC000642096826   -0.6200
      5 C5        -14.0612   -2.2836   59.2556 C.3     1  ZINC000642096826    0.1100
      6 C6        -14.7193   -2.2833   57.8743 C.3     1  ZINC000642096826   -0.1400
      7 C7        -15.6079   -3.5206   57.7325 C.3     1  ZINC000642096826   -0.1500
      8 C8        -11.9101   -1.1913   58.9144 C.2     1  ZINC000642096826    0.5200
      9 O9        -11.1759   -0.2311   59.0143 O.2     1  ZINC000642096826   -0.5200
     10 C10       -11.4079   -2.4606   58.2758 C.3     1  ZINC000642096826    0.0400
     11 N11       -10.4230   -2.1299   57.2373 N.3     1  ZINC000642096826   -0.5200
     12 C12        -9.4944   -3.2469   57.0176 C.3     1  ZINC000642096826    0.0100
     13 C13       -11.0876   -1.7438   55.9855 C.3     1  ZINC000642096826    0.0900
     14 C14       -10.2102   -0.7813   55.2272 C.ar    1  ZINC000642096826   -0.0500
     15 C15        -9.5385   -1.2071   54.0950 C.ar    1  ZINC000642096826   -0.1000
     16 C16        -8.7334   -0.3312   53.3966 C.ar    1  ZINC000642096826   -0.0600
     17 C17        -8.5977    0.9873   53.8343 C.ar    1  ZINC000642096826   -0.1400
     18 C18        -7.7369    1.9315   53.0904 C.2     1  ZINC000642096826    0.5600
     19 O19        -8.0040    3.1173   53.0785 O.2     1  ZINC000642096826   -0.5300
     20 N20        -6.6561    1.4776   52.4256 N.am    1  ZINC000642096826   -0.7000
     21 C21        -5.8040    2.4130   51.6870 C.3     1  ZINC000642096826    0.0800
     22 C22        -4.6753    3.1002   52.4581 C.3     1  ZINC000642096826   -0.1900
     23 C23        -4.3504    2.0026   51.4429 C.3     1  ZINC000642096826   -0.1900
     24 C24        -9.2784    1.4105   54.9769 C.ar    1  ZINC000642096826   -0.0900
     25 C25       -10.0844    0.5258   55.6631 C.ar    1  ZINC000642096826   -0.1200
     26 H26       -15.5129    2.1023   60.2114 H       1  ZINC000642096826    0.0600
     27 H27       -13.8880    2.8244   60.1315 H       1  ZINC000642096826    0.0600
     28 H28       -15.0231    3.0352   58.7768 H       1  ZINC000642096826    0.0600
     29 H29       -14.9372    0.5984   58.3258 H       1  ZINC000642096826    0.0600
     30 H30       -13.3123    1.3205   58.2459 H       1  ZINC000642096826    0.0600
     31 H31       -12.8576    0.5778   60.5599 H       1  ZINC000642096826    0.0800
     32 H32       -14.4912   -0.1214   60.6641 H       1  ZINC000642096826    0.0800
     33 H33       -13.4815   -3.1980   59.3816 H       1  ZINC000642096826    0.0800
     34 H34       -14.8316   -2.2330   60.0251 H       1  ZINC000642096826    0.0800
     35 H35       -15.3265   -1.3851   57.7615 H       1  ZINC000642096826    0.0700
     36 H36       -13.9481   -2.2996   57.1043 H       1  ZINC000642096826    0.0700
     37 H37       -16.0767   -3.5204   56.7484 H       1  ZINC000642096826    0.0600
     38 H38       -15.0007   -4.4189   57.8453 H       1  ZINC000642096826    0.0600
     39 H39       -16.3792   -3.5043   58.5024 H       1  ZINC000642096826    0.0600
     40 H40       -10.9396   -3.0881   59.0341 H       1  ZINC000642096826    0.0600
     41 H41       -12.2438   -2.9965   57.8264 H       1  ZINC000642096826    0.1000
     42 H42       -10.0536   -4.1273   56.7013 H       1  ZINC000642096826    0.0200
     43 H43        -8.7761   -2.9754   56.2441 H       1  ZINC000642096826    0.0700
     44 H44        -8.9645   -3.4665   57.9445 H       1  ZINC000642096826    0.0900
     45 H45       -11.2624   -2.6318   55.3780 H       1  ZINC000642096826    0.0500
     46 H46       -12.0403   -1.2655   56.2124 H       1  ZINC000642096826    0.0900
     47 H47        -9.6444   -2.2275   53.7575 H       1  ZINC000642096826    0.1300
     48 H48        -8.2090   -0.6649   52.5134 H       1  ZINC000642096826    0.1400
     49 H49        -6.4422    0.5315   52.4361 H       1  ZINC000642096826    0.4000
     50 H50        -6.3028    2.9870   50.9062 H       1  ZINC000642096826    0.1400
     51 H51        -4.4315    4.1268   52.1849 H       1  ZINC000642096826    0.1000
     52 H52        -4.5667    2.8565   53.5150 H       1  ZINC000642096826    0.1000
     53 H53        -4.0280    1.0368   51.8320 H       1  ZINC000642096826    0.1000
     54 H54        -3.8927    2.3071   50.5017 H       1  ZINC000642096826    0.1100
     55 H55        -9.1773    2.4292   55.3209 H       1  ZINC000642096826    0.1200
     56 H56       -10.6120    0.8521   56.5472 H       1  ZINC000642096826    0.1300
@<TRIPOS>BOND
     1     1     2    1
     2     1    26    1
     3     1    27    1
     4     1    28    1
     5     2     3    1
     6     2    29    1
     7     2    30    1
     8     3     4    1
     9     3    31    1
    10     3    32    1
    11     4     5    1
    12     4     8   am
    13     5     6    1
    14     5    33    1
    15     5    34    1
    16     6     7    1
    17     6    35    1
    18     6    36    1
    19     7    37    1
    20     7    38    1
    21     7    39    1
    22     8     9    2
    23     8    10    1
    24    10    11    1
    25    10    40    1
    26    10    41    1
    27    11    12    1
    28    11    13    1
    29    12    42    1
    30    12    43    1
    31    12    44    1
    32    13    14    1
    33    13    45    1
    34    13    46    1
    35    14    25   ar
    36    14    15   ar
    37    15    16   ar
    38    15    47    1
    39    16    17   ar
    40    16    48    1
    41    17    18    1
    42    17    24   ar
    43    18    19    2
    44    18    20   am
    45    20    21    1
    46    20    49    1
    47    21    23    1
    48    21    22    1
    49    21    50    1
    50    22    23    1
    51    22    51    1
    52    22    52    1
    53    23    53    1
    54    23    54    1
    55    24    25   ar
    56    24    55    1
    57    25    56    1
@<TRIPOS>SUBSTRUCTURE
     1 ZINC000642096826        1 TEMP              0 ****  ****    0 ROOT


##########                                Name:    ZINC000291036115
##########                DOCK_Rotatable_Bonds:                   5
##########                         Heavy_Atoms:                  22
##########                    Molecular_Weight:             366.193
##########                DOCK_Rotatable_Bonds:                   5
##########                       Formal_Charge:                0.01
##########                     HBond_Acceptors:                   7
##########                        HBond_Donors:                   0
##########                         Heavy_Atoms:                  22
##########                          Grid_Score:          -28.592920
##########                     Grid_vdw_energy:          -28.413919
##########                      Grid_es_energy:           -0.179001
##########           Internal_energy_repulsive:            4.421143

@<TRIPOS>MOLECULE
ZINC000291036115
 35 37 1 0 0
SMALL
USER_CHARGES


@<TRIPOS>ATOM
      1 C1         -6.9239    3.6535   51.8462 C.3     1  <0>        -0.1500
      2 C2         -6.2193    2.3900   52.3442 C.3     1  <0>        -0.0400
      3 H3         -6.5219    1.5402   51.7323 H       1  <0>         0.0900
      4 C4         -6.6049    2.1320   53.8021 C.3     1  <0>        -0.0200
      5 C5         -7.9227    1.4025   53.8515 C.2     1  <0>         0.1900
      6 N6         -8.1075    0.1128   53.7021 N.2     1  <0>        -0.4500
      7 C7         -9.4331   -0.0793   53.8231 C.2     1  <0>         0.1500
      8 C8        -10.1553   -1.3988   53.7296 C.3     1  <0>         0.2300
      9 N9        -10.3032   -1.9706   55.0702 N.pl3   1  <0>        -0.3900
     10 C10       -11.3562   -1.8305   55.8941 C.2     1  <0>         0.2600
     11 N11       -11.1021   -2.4922   56.9938 N.2     1  <0>        -0.5400
     12 C12        -9.9021   -3.0651   56.9095 C.2     1  <0>         0.2000
     13 N13        -9.3758   -2.7790   55.7476 N.2     1  <0>        -0.3100
     14 N14        -9.9768    1.0815   54.0360 N.2     1  <0>        -0.3600
     15 O15        -9.1256    1.9454   54.0617 O.3     1  <0>         0.0900
     16 C16        -4.7270    2.5747   52.2445 C.ar    1  <0>        -0.0900
     17 C17        -4.0179    1.9388   51.2428 C.ar    1  <0>        -0.0700
     18 C18        -2.6491    2.1076   51.1497 C.ar    1  <0>        -0.1400
     19 C19        -1.9879    2.9138   52.0600 C.ar    1  <0>         0.1300
     20 F20        -0.6502    3.0797   51.9696 F       1  <0>        -0.1200
     21 C21        -2.6994    3.5510   53.0639 C.ar    1  <0>        -0.1300
     22 Br22       -1.7987    4.6534   54.3085 Br      1  <0>        -0.0200
     23 C23        -4.0692    3.3847   53.1516 C.ar    1  <0>        -0.0500
     24 H24        -8.0033    3.5199   51.9182 H       1  <0>         0.0600
     25 H25        -6.6213    4.5033   52.4579 H       1  <0>         0.0700
     26 H26        -6.6491    3.8374   50.8075 H       1  <0>         0.0700
     27 H27        -5.8356    1.5251   54.2794 H       1  <0>         0.1200
     28 H28        -6.6960    3.0826   54.3275 H       1  <0>         0.1100
     29 H29       -11.1405   -1.2433   53.2901 H       1  <0>         0.1300
     30 H30        -9.5822   -2.0830   53.1039 H       1  <0>         0.1200
     31 H31       -12.2548   -1.2691   55.6851 H       1  <0>         0.2200
     32 H32        -9.4408   -3.6713   57.6751 H       1  <0>         0.2200
     33 H33        -4.5335    1.3094   50.5327 H       1  <0>         0.1400
     34 H34        -2.0955    1.6103   50.3670 H       1  <0>         0.1500
     35 H35        -4.6242    3.8810   53.9339 H       1  <0>         0.1400
@<TRIPOS>BOND
     1     1     2    1
     2     1    24    1
     3     1    25    1
     4     1    26    1
     5     2     3    1
     6     2     4    1
     7     2    16    1
     8     4     5    1
     9     4    27    1
    10     4    28    1
    11     5    15    1
    12     5     6    2
    13     6     7    1
    14     7     8    1
    15     7    14    2
    16     8     9    1
    17     8    29    1
    18     8    30    1
    19     9    13    1
    20     9    10    1
    21    10    11    2
    22    10    31    1
    23    11    12    1
    24    12    13    2
    25    12    32    1
    26    14    15    1
    27    16    23   ar
    28    16    17   ar
    29    17    18   ar
    30    17    33    1
    31    18    19   ar
    32    18    34    1
    33    19    20    1
    34    19    21   ar
    35    21    22    1
    36    21    23   ar
    37    23    35    1
@<TRIPOS>SUBSTRUCTURE
     1 <0>         1 TEMP              0 ****  ****    0 ROOT


##########                                Name:    ZINC000583220082
##########                DOCK_Rotatable_Bonds:                   9
##########                         Heavy_Atoms:                  29
##########                    Molecular_Weight:             417.492
##########                DOCK_Rotatable_Bonds:                   9
##########                       Formal_Charge:          -0.0400006
##########                     HBond_Acceptors:                  11
##########                        HBond_Donors:                   3
##########                         Heavy_Atoms:                  29
##########                          Grid_Score:          -28.587654
##########                     Grid_vdw_energy:          -28.938938
##########                      Grid_es_energy:            0.351284
##########           Internal_energy_repulsive:           20.711374

@<TRIPOS>MOLECULE
ZINC000583220082
 52 54 1 0 0
SMALL
USER_CHARGES


@<TRIPOS>ATOM
      1 C1         -3.2251    3.4159   53.0660 C.3     1  ZINC000583220082    0.0800
      2 N2         -3.8686    2.6382   52.0042 N.am    1  ZINC000583220082   -0.6300
      3 C3         -3.0760    1.7130   51.1907 C.3     1  ZINC000583220082    0.0800
      4 C4         -5.1900    2.7740   51.7759 C.2     1  ZINC000583220082    0.5100
      5 O5         -5.7231    2.1290   50.8980 O.2     1  ZINC000583220082   -0.5300
      6 C6         -6.0050    3.7270   52.6116 C.3     1  ZINC000583220082   -0.1000
      7 C7         -6.6003    2.9866   53.7814 C.ar    1  ZINC000583220082   -0.0800
      8 C8         -6.1618    3.2576   55.0647 C.ar    1  ZINC000583220082   -0.0800
      9 C9         -6.7051    2.5810   56.1390 C.ar    1  ZINC000583220082   -0.1400
     10 C10        -7.6937    1.6276   55.9294 C.ar    1  ZINC000583220082    0.1400
     11 N11        -8.2459    0.9414   57.0141 N.am    1  ZINC000583220082   -0.6400
     12 C12        -8.7235    1.6262   58.0722 C.2     1  ZINC000583220082    0.5100
     13 O13        -8.6739    2.8388   58.0828 O.2     1  ZINC000583220082   -0.4900
     14 C14        -9.3138    0.8926   59.2316 C.2     1  ZINC000583220082    0.5100
     15 O15        -8.5888    0.4037   60.0732 O.2     1  ZINC000583220082   -0.5100
     16 N16       -10.6516    0.7738   59.3434 N.am    1  ZINC000583220082   -0.5800
     17 C17       -11.5481    1.3534   58.3316 C.3     1  ZINC000583220082    0.0600
     18 C18       -12.5293    0.2697   57.8725 C.3     1  ZINC000583220082    0.0300
     19 N19       -13.2039   -0.3040   59.0445 N.3     1  ZINC000583220082   -0.4300
     20 C20       -14.2117   -1.1698   58.6617 C.2     1  ZINC000583220082    0.2900
     21 N21       -14.1012   -2.4500   58.3759 N.2     1  ZINC000583220082   -0.5700
     22 C22       -15.2065   -3.0788   58.0331 C.2     1  ZINC000583220082    0.5400
     23 N23       -15.1951   -4.4356   57.7122 N.pl3   1  ZINC000583220082   -0.8200
     24 N24       -16.3139   -2.3864   58.0045 N.2     1  ZINC000583220082   -0.5500
     25 S25       -15.8842   -0.8077   58.4631 S.3     1  ZINC000583220082    0.2000
     26 C26       -12.2466   -0.9720   59.9364 C.3     1  ZINC000583220082    0.0500
     27 C27       -11.2536    0.0557   60.4770 C.3     1  ZINC000583220082    0.1100
     28 C28        -8.1321    1.3582   54.6389 C.ar    1  ZINC000583220082   -0.1200
     29 C29        -7.5878    2.0419   53.5697 C.ar    1  ZINC000583220082   -0.0800
     30 H30        -2.8721    4.3636   52.6592 H       1  ZINC000583220082    0.0500
     31 H31        -3.9439    3.6078   53.8626 H       1  ZINC000583220082    0.0800
     32 H32        -2.3804    2.8551   53.4661 H       1  ZINC000583220082    0.0700
     33 H33        -2.0370    1.7387   51.5195 H       1  ZINC000583220082    0.0800
     34 H34        -3.4680    0.7023   51.3040 H       1  ZINC000583220082    0.0600
     35 H35        -3.1331    2.0096   50.1435 H       1  ZINC000583220082    0.0600
     36 H36        -5.3639    4.5290   52.9774 H       1  ZINC000583220082    0.1000
     37 H37        -6.8051    4.1500   52.0041 H       1  ZINC000583220082    0.1000
     38 H38        -5.3933    3.9989   55.2269 H       1  ZINC000583220082    0.1300
     39 H39        -6.3618    2.7926   57.1408 H       1  ZINC000583220082    0.1300
     40 H40        -8.2856   -0.0278   57.0056 H       1  ZINC000583220082    0.4200
     41 H41       -12.1002    2.1869   58.7660 H       1  ZINC000583220082    0.0900
     42 H42       -10.9630    1.7020   57.4806 H       1  ZINC000583220082    0.1700
     43 H43       -13.2706    0.7092   57.2051 H       1  ZINC000583220082    0.1100
     44 H44       -11.9851   -0.5144   57.3461 H       1  ZINC000583220082    0.0700
     45 H45       -15.9811   -4.8480   57.3211 H       1  ZINC000583220082    0.4200
     46 H46       -14.4011   -4.9669   57.8799 H       1  ZINC000583220082    0.4200
     47 H47       -12.7830   -1.4328   60.7660 H       1  ZINC000583220082    0.1100
     48 H48       -11.7063   -1.7387   59.3813 H       1  ZINC000583220082    0.0600
     49 H49       -10.4748   -0.4518   61.0462 H       1  ZINC000583220082    0.1100
     50 H50       -11.7750    0.7667   61.1178 H       1  ZINC000583220082    0.0900
     51 H51        -8.9004    0.6176   54.4725 H       1  ZINC000583220082    0.1400
     52 H52        -7.9281    1.8331   52.5663 H       1  ZINC000583220082    0.1300
@<TRIPOS>BOND
     1     1     2    1
     2     1    30    1
     3     1    31    1
     4     1    32    1
     5     2     3    1
     6     2     4   am
     7     3    33    1
     8     3    34    1
     9     3    35    1
    10     4     5    2
    11     4     6    1
    12     6     7    1
    13     6    36    1
    14     6    37    1
    15     7    29   ar
    16     7     8   ar
    17     8     9   ar
    18     8    38    1
    19     9    10   ar
    20     9    39    1
    21    10    11    1
    22    10    28   ar
    23    11    12   am
    24    11    40    1
    25    12    13    2
    26    12    14    1
    27    14    15    2
    28    14    16   am
    29    16    27    1
    30    16    17    1
    31    17    18    1
    32    17    41    1
    33    17    42    1
    34    18    19    1
    35    18    43    1
    36    18    44    1
    37    19    20    1
    38    19    26    1
    39    20    25    1
    40    20    21    2
    41    21    22    1
    42    22    23    1
    43    22    24    2
    44    23    45    1
    45    23    46    1
    46    24    25    1
    47    26    27    1
    48    26    47    1
    49    26    48    1
    50    27    49    1
    51    27    50    1
    52    28    29   ar
    53    28    51    1
    54    29    52    1
@<TRIPOS>SUBSTRUCTURE
     1 ZINC000583220082        1 TEMP              0 ****  ****    0 ROOT


##########                                Name:    ZINC001060578637
##########                DOCK_Rotatable_Bonds:                  10
##########                         Heavy_Atoms:                  25
##########                    Molecular_Weight:             345.401
##########                DOCK_Rotatable_Bonds:                  10
##########                       Formal_Charge:          -0.0400001
##########                     HBond_Acceptors:                   8
##########                        HBond_Donors:                   3
##########                         Heavy_Atoms:                  25
##########                          Grid_Score:          -28.586905
##########                     Grid_vdw_energy:          -25.635099
##########                      Grid_es_energy:           -2.951805
##########           Internal_energy_repulsive:           12.572813

@<TRIPOS>MOLECULE
ZINC001060578637
 48 49 1 0 0
SMALL
USER_CHARGES


@<TRIPOS>ATOM
      1 C1         -6.9078    3.4646   53.7630 C.3     1  ZINC001060578637   -0.1500
      2 C2         -6.8077    2.7637   52.4068 C.3     1  ZINC001060578637   -0.1300
      3 C3         -5.9689    1.4921   52.5504 C.3     1  ZINC001060578637    0.0700
      4 H4         -5.3128    1.5855   53.4158 H       1  ZINC001060578637    0.0900
      5 O5         -5.1808    1.3059   51.3731 O.3     1  ZINC001060578637   -0.3600
      6 C6         -4.0498    2.1753   51.2871 C.3     1  ZINC001060578637    0.0300
      7 C7         -6.8810    0.3071   52.7370 C.2     1  ZINC001060578637    0.5000
      8 O8         -6.5148   -0.7989   52.4002 O.2     1  ZINC001060578637   -0.5200
      9 N9         -8.1037    0.4765   53.2781 N.am    1  ZINC001060578637   -0.7300
     10 C10        -8.9898   -0.6758   53.4611 C.3     1  ZINC001060578637    0.1600
     11 C11       -10.4170   -0.2549   53.2227 C.ar    1  ZINC001060578637   -0.1100
     12 C12       -11.2383   -1.0215   52.4175 C.ar    1  ZINC001060578637   -0.0900
     13 C13       -12.5476   -0.6354   52.1988 C.ar    1  ZINC001060578637   -0.1100
     14 C14       -13.0355    0.5171   52.7858 C.ar    1  ZINC001060578637   -0.0900
     15 C15       -14.4626    0.9383   52.5471 C.3     1  ZINC001060578637    0.1800
     16 H16       -14.5973    1.9684   52.8773 H       1  ZINC001060578637    0.1000
     17 C17       -15.4030    0.0233   53.3340 C.3     1  ZINC001060578637   -0.1600
     18 N18       -14.7683    0.8399   51.1178 N.am    1  ZINC001060578637   -0.7000
     19 C19       -14.4573    1.8574   50.2904 C.2     1  ZINC001060578637    0.6100
     20 O20       -13.9244    2.8578   50.7306 O.2     1  ZINC001060578637   -0.5300
     21 C21       -14.7635    1.7575   48.8515 C.2     1  ZINC001060578637    0.1200
     22 N22       -15.6729    0.9854   48.2960 N.2     1  ZINC001060578637   -0.2400
     23 N23       -15.6619    1.1594   47.0220 N.2     1  ZINC001060578637   -0.2900
     24 C24       -14.7516    2.0455   46.6993 C.2     1  ZINC001060578637    0.1900
     25 N25       -14.1590    2.4558   47.8381 N.pl3   1  ZINC001060578637   -0.5500
     26 C26       -12.2144    1.2829   53.5922 C.ar    1  ZINC001060578637   -0.1100
     27 C27       -10.9065    0.8948   53.8139 C.ar    1  ZINC001060578637   -0.0900
     28 H28        -7.5310    4.3537   53.6674 H       1  ZINC001060578637    0.0600
     29 H29        -7.3524    2.7859   54.4909 H       1  ZINC001060578637    0.0500
     30 H30        -5.9113    3.7536   54.0971 H       1  ZINC001060578637    0.0600
     31 H31        -7.8068    2.5024   52.0582 H       1  ZINC001060578637    0.0800
     32 H32        -6.3347    3.4315   51.6866 H       1  ZINC001060578637    0.0800
     33 H33        -3.4613    1.9198   50.4059 H       1  ZINC001060578637    0.0900
     34 H34        -4.3904    3.2078   51.2097 H       1  ZINC001060578637    0.0500
     35 H35        -3.4353    2.0612   52.1801 H       1  ZINC001060578637    0.0400
     36 H36        -8.3970    1.3613   53.5464 H       1  ZINC001060578637    0.4000
     37 H37        -8.7186   -1.4587   52.7529 H       1  ZINC001060578637    0.0800
     38 H38        -8.8878   -1.0546   54.4781 H       1  ZINC001060578637    0.0800
     39 H39       -10.8573   -1.9220   51.9589 H       1  ZINC001060578637    0.1300
     40 H40       -13.1891   -1.2340   51.5691 H       1  ZINC001060578637    0.1300
     41 H41       -15.2681   -1.0066   53.0038 H       1  ZINC001060578637    0.0600
     42 H42       -15.1755    0.0966   54.3975 H       1  ZINC001060578637    0.0700
     43 H43       -16.4351    0.3281   53.1613 H       1  ZINC001060578637    0.0700
     44 H44       -15.1946    0.0424   50.7668 H       1  ZINC001060578637    0.4100
     45 H45       -14.5209    2.3879   45.7014 H       1  ZINC001060578637    0.2300
     46 H46       -13.4461    3.1080   47.9230 H       1  ZINC001060578637    0.4400
     47 H47       -12.5958    2.1832   54.0510 H       1  ZINC001060578637    0.1300
     48 H48       -10.2649    1.4932   54.4439 H       1  ZINC001060578637    0.1300
@<TRIPOS>BOND
     1     1     2    1
     2     1    28    1
     3     1    29    1
     4     1    30    1
     5     2     3    1
     6     2    31    1
     7     2    32    1
     8     3     4    1
     9     3     5    1
    10     3     7    1
    11     5     6    1
    12     6    33    1
    13     6    34    1
    14     6    35    1
    15     7     8    2
    16     7     9   am
    17     9    10    1
    18     9    36    1
    19    10    11    1
    20    10    37    1
    21    10    38    1
    22    11    27   ar
    23    11    12   ar
    24    12    13   ar
    25    12    39    1
    26    13    14   ar
    27    13    40    1
    28    14    15    1
    29    14    26   ar
    30    15    16    1
    31    15    17    1
    32    15    18    1
    33    17    41    1
    34    17    42    1
    35    17    43    1
    36    18    19   am
    37    18    44    1
    38    19    20    2
    39    19    21    1
    40    21    25    1
    41    21    22    2
    42    22    23    1
    43    23    24    2
    44    24    25    1
    45    24    45    1
    46    25    46    1
    47    26    27   ar
    48    26    47    1
    49    27    48    1
@<TRIPOS>SUBSTRUCTURE
     1 ZINC001060578637        1 TEMP              0 ****  ****    0 ROOT


##########                                Name:    ZINC001217683559
##########                DOCK_Rotatable_Bonds:                   3
##########                         Heavy_Atoms:                  25
##########                    Molecular_Weight:             397.234
##########                DOCK_Rotatable_Bonds:                   3
##########                       Formal_Charge:          0.00999987
##########                     HBond_Acceptors:                   7
##########                        HBond_Donors:                   0
##########                         Heavy_Atoms:                  25
##########                          Grid_Score:          -28.585457
##########                     Grid_vdw_energy:          -28.543531
##########                      Grid_es_energy:           -0.041926
##########           Internal_energy_repulsive:           26.514355

@<TRIPOS>MOLECULE
ZINC001217683559
 38 42 1 0 0
SMALL
USER_CHARGES


@<TRIPOS>ATOM
      1 Br1        -0.4159    4.5921   53.3067 Br      1  ZINC001217683559    0.0100
      2 C2          0.8563    3.7815   52.1664 C.ar    1  ZINC001217683559   -0.1200
      3 C3          2.1916    4.1461   52.2313 C.ar    1  ZINC001217683559   -0.0500
      4 C4          3.0894    3.5251   51.3758 C.ar    1  ZINC001217683559   -0.1500
      5 C5          2.6302    2.5674   50.4894 C.ar    1  ZINC001217683559    0.1200
      6 N6          1.3552    2.2398   50.4481 N.ar    1  ZINC001217683559   -0.4400
      7 C7          0.4653    2.8047   51.2527 C.ar    1  ZINC001217683559    0.2200
      8 C8         -0.9617    2.4031   51.1699 C.2     1  ZINC001217683559    0.2100
      9 N9         -1.5197    1.7213   50.2030 N.2     1  ZINC001217683559   -0.3300
     10 O10        -2.6993    1.5550   50.4303 O.3     1  ZINC001217683559    0.1000
     11 C11        -3.0251    2.1298   51.5988 C.2     1  ZINC001217683559    0.2300
     12 C12        -4.3618    2.1496   52.2276 C.2     1  ZINC001217683559   -0.0600
     13 C13        -5.2090    1.0896   52.0676 C.2     1  ZINC001217683559    0.1800
     14 N14        -6.4377    1.0997   52.6412 N.pl3   1  ZINC001217683559   -0.2900
     15 N15        -7.4966    0.1804   52.6519 N.2     1  ZINC001217683559   -0.3300
     16 C16        -8.4583    0.7085   53.3713 C.2     1  ZINC001217683559    0.2800
     17 C17        -9.7899    0.0604   53.6502 C.3     1  ZINC001217683559   -0.0300
     18 C18        -9.7052   -1.4630   53.8423 C.3     1  ZINC001217683559   -0.1200
     19 C19       -10.7324   -1.2983   54.9749 C.3     1  ZINC001217683559   -0.1400
     20 C20       -10.2186    0.1435   55.1247 C.3     1  ZINC001217683559   -0.1200
     21 N21        -8.0800    1.8987   53.8164 N.2     1  ZINC001217683559   -0.5300
     22 C22        -6.8520    2.1669   53.3886 C.2     1  ZINC001217683559    0.2900
     23 C23        -5.9982    3.2724   53.5697 C.2     1  ZINC001217683559   -0.1000
     24 C24        -4.7644    3.2638   53.0012 C.2     1  ZINC001217683559   -0.0200
     25 N25        -1.9207    2.6692   52.0811 N.2     1  ZINC001217683559   -0.4300
     26 H26         2.5255    4.8971   52.9320 H       1  ZINC001217683559    0.1600
     27 H27         4.1369    3.7869   51.4010 H       1  ZINC001217683559    0.1500
     28 H28         3.3267    2.0820   49.8219 H       1  ZINC001217683559    0.1800
     29 H29        -4.8981    0.2384   51.4801 H       1  ZINC001217683559    0.1900
     30 H30       -10.5665    0.3712   52.9516 H       1  ZINC001217683559    0.1200
     31 H31       -10.0807   -2.0319   52.9917 H       1  ZINC001217683559    0.0700
     32 H32        -8.7291   -1.8064   54.1847 H       1  ZINC001217683559    0.1000
     33 H33       -11.7673   -1.3602   54.6382 H       1  ZINC001217683559    0.0800
     34 H34       -10.5301   -1.9263   55.8425 H       1  ZINC001217683559    0.0800
     35 H35        -9.3827    0.2393   55.8178 H       1  ZINC001217683559    0.0900
     36 H36       -11.0084    0.8715   55.3095 H       1  ZINC001217683559    0.0700
     37 H37        -6.3202    4.1184   54.1588 H       1  ZINC001217683559    0.1700
     38 H38        -4.0992    4.1045   53.1316 H       1  ZINC001217683559    0.1700
@<TRIPOS>BOND
     1     1     2    1
     2     2     7   ar
     3     2     3   ar
     4     3     4   ar
     5     3    26    1
     6     4     5   ar
     7     4    27    1
     8     5     6   ar
     9     5    28    1
    10     6     7   ar
    11     7     8    1
    12     8    25    1
    13     8     9    2
    14     9    10    1
    15    10    11    1
    16    11    12    1
    17    11    25    2
    18    12    24    1
    19    12    13    2
    20    13    14    1
    21    13    29    1
    22    14    22    1
    23    14    15    1
    24    15    16    2
    25    16    17    1
    26    16    21    1
    27    17    20    1
    28    17    18    1
    29    17    30    1
    30    18    19    1
    31    18    31    1
    32    18    32    1
    33    19    20    1
    34    19    33    1
    35    19    34    1
    36    20    35    1
    37    20    36    1
    38    21    22    2
    39    22    23    1
    40    23    24    2
    41    23    37    1
    42    24    38    1
@<TRIPOS>SUBSTRUCTURE
     1 ZINC001217683559        1 TEMP              0 ****  ****    0 ROOT


##########                                Name:    ZINC000979274057
##########                DOCK_Rotatable_Bonds:                   6
##########                         Heavy_Atoms:                  24
##########                    Molecular_Weight:              330.39
##########                DOCK_Rotatable_Bonds:                   6
##########                       Formal_Charge:          0.00999946
##########                     HBond_Acceptors:                   8
##########                        HBond_Donors:                   1
##########                         Heavy_Atoms:                  24
##########                          Grid_Score:          -28.578213
##########                     Grid_vdw_energy:          -27.185776
##########                      Grid_es_energy:           -1.392438
##########           Internal_energy_repulsive:           16.130859

@<TRIPOS>MOLECULE
ZINC000979274057
 46 48 1 0 0
SMALL
USER_CHARGES


@<TRIPOS>ATOM
      1 C1         -5.5689    3.9646   58.0122 C.3     1  ZINC000979274057   -0.1400
      2 C2         -5.6587    2.4814   57.6480 C.3     1  ZINC000979274057    0.1000
      3 H3         -4.8622    1.9344   58.1524 H       1  ZINC000979274057    0.0600
      4 N4         -5.5159    2.3245   56.1944 N.3     1  ZINC000979274057   -0.6700
      5 C5         -6.2138    3.4003   55.4777 C.3     1  ZINC000979274057    0.1300
      6 C6         -6.3205    3.0441   54.0172 C.ar    1  ZINC000979274057    0.3200
      7 N7         -6.3461    4.0107   53.1215 N.ar    1  ZINC000979274057   -0.5200
      8 C8         -6.4391    3.7362   51.8304 C.ar    1  ZINC000979274057    0.1500
      9 C9         -6.5095    2.4123   51.4260 C.ar    1  ZINC000979274057   -0.2300
     10 C10        -6.4797    1.4239   52.3971 C.ar    1  ZINC000979274057    0.1500
     11 N11        -6.3801    1.7743   53.6693 N.ar    1  ZINC000979274057   -0.5000
     12 C12        -7.0155    1.9291   58.0896 C.3     1  ZINC000979274057    0.0800
     13 H13        -7.6487    2.7483   58.4301 H       1  ZINC000979274057    0.0700
     14 C14        -6.8134    0.9287   59.2334 C.3     1  ZINC000979274057    0.0800
     15 N15        -8.1023    0.2756   59.5119 N.am    1  ZINC000979274057   -0.6000
     16 C16        -8.5894    0.2091   60.7668 C.2     1  ZINC000979274057    0.6100
     17 O17        -9.6569   -0.3347   60.9766 O.2     1  ZINC000979274057   -0.5400
     18 C18        -7.8291    0.7949   61.8843 C.2     1  ZINC000979274057   -0.0600
     19 C19        -7.8988    2.0865   62.3177 C.2     1  ZINC000979274057    0.0400
     20 N20        -7.0419    2.1981   63.3599 N.pl3   1  ZINC000979274057   -0.4600
     21 C21        -6.7857    3.4102   64.1417 C.3     1  ZINC000979274057    0.0700
     22 C22        -6.4626    0.9843   63.5510 C.2     1  ZINC000979274057    0.1900
     23 N23        -6.9356    0.1462   62.6743 N.2     1  ZINC000979274057   -0.4600
     24 C24        -8.8438   -0.3023   58.3800 C.3     1  ZINC000979274057    0.0500
     25 C25        -8.9470    0.7582   57.2777 C.3     1  ZINC000979274057    0.0500
     26 O26        -7.6425    1.2666   56.9888 O.3     1  ZINC000979274057   -0.3600
     27 H27        -4.6022    4.3581   57.6976 H       1  ZINC000979274057    0.0600
     28 H28        -6.3653    4.5116   57.5077 H       1  ZINC000979274057    0.0700
     29 H29        -5.6749    4.0811   59.0908 H       1  ZINC000979274057    0.0600
     30 H30        -4.5432    2.2850   55.9288 H       1  ZINC000979274057    0.3500
     31 H31        -7.2130    3.5260   55.8948 H       1  ZINC000979274057    0.1000
     32 H32        -5.6556    4.3303   55.5851 H       1  ZINC000979274057    0.0600
     33 H33        -6.4600    4.5329   51.1016 H       1  ZINC000979274057    0.1700
     34 H34        -6.5863    2.1572   50.3794 H       1  ZINC000979274057    0.1500
     35 H35        -6.5330    0.3817   52.1191 H       1  ZINC000979274057    0.1700
     36 H36        -6.0780    0.1794   58.9401 H       1  ZINC000979274057    0.0700
     37 H37        -6.4680    1.4539   60.1238 H       1  ZINC000979274057    0.1000
     38 H38        -8.5186    2.8702   61.9078 H       1  ZINC000979274057    0.1900
     39 H39        -7.4767    3.4524   64.9837 H       1  ZINC000979274057    0.0800
     40 H40        -5.7611    3.3932   64.5131 H       1  ZINC000979274057    0.0900
     41 H41        -6.9287    4.2870   63.5102 H       1  ZINC000979274057    0.0900
     42 H42        -5.7308    0.7512   64.3102 H       1  ZINC000979274057    0.2100
     43 H43        -8.3129   -1.1755   58.0007 H       1  ZINC000979274057    0.0700
     44 H44        -9.8429   -0.5922   58.7051 H       1  ZINC000979274057    0.1500
     45 H45        -9.3700    0.3092   56.3790 H       1  ZINC000979274057    0.1100
     46 H46        -9.5880    1.5726   57.6150 H       1  ZINC000979274057    0.0500
@<TRIPOS>BOND
     1     1     2    1
     2     1    27    1
     3     1    28    1
     4     1    29    1
     5     2     3    1
     6     2     4    1
     7     2    12    1
     8     4     5    1
     9     4    30    1
    10     5     6    1
    11     5    31    1
    12     5    32    1
    13     6    11   ar
    14     6     7   ar
    15     7     8   ar
    16     8     9   ar
    17     8    33    1
    18     9    10   ar
    19     9    34    1
    20    10    11   ar
    21    10    35    1
    22    12    13    1
    23    12    26    1
    24    12    14    1
    25    14    15    1
    26    14    36    1
    27    14    37    1
    28    15    16   am
    29    15    24    1
    30    16    17    2
    31    16    18    1
    32    18    23    1
    33    18    19    2
    34    19    20    1
    35    19    38    1
    36    20    21    1
    37    20    22    1
    38    21    39    1
    39    21    40    1
    40    21    41    1
    41    22    23    2
    42    22    42    1
    43    24    25    1
    44    24    43    1
    45    24    44    1
    46    25    26    1
    47    25    45    1
    48    25    46    1
@<TRIPOS>SUBSTRUCTURE
     1 ZINC000979274057        1 TEMP              0 ****  ****    0 ROOT


##########                                Name:    ZINC000451500596
##########                DOCK_Rotatable_Bonds:                   7
##########                         Heavy_Atoms:                  25
##########                    Molecular_Weight:             365.497
##########                DOCK_Rotatable_Bonds:                   7
##########                       Formal_Charge:           0.0400004
##########                     HBond_Acceptors:                   7
##########                        HBond_Donors:                   2
##########                         Heavy_Atoms:                  25
##########                          Grid_Score:          -28.561829
##########                     Grid_vdw_energy:          -27.975092
##########                      Grid_es_energy:           -0.586736
##########           Internal_energy_repulsive:           12.537118

@<TRIPOS>MOLECULE
ZINC000451500596
 52 54 1 0 0
SMALL
USER_CHARGES


@<TRIPOS>ATOM
      1 C1          6.0308    1.2070   50.7152 C.3     1  ZINC000451500596   -0.6700
      2 S2          6.1149   -0.5911   50.4901 S.o2    1  ZINC000451500596    2.6100
      3 O3          7.4641   -1.0356   50.5264 O.2     1  ZINC000451500596   -0.9500
      4 O4          5.1096   -1.2373   51.2590 O.2     1  ZINC000451500596   -0.9600
      5 N5          5.6471   -0.8333   48.9202 N.am    1  ZINC000451500596   -1.1200
      6 C6          4.3180   -0.4046   48.4775 C.3     1  ZINC000451500596    0.1200
      7 C7          3.8343   -1.3227   47.3531 C.3     1  ZINC000451500596   -0.1000
      8 H8          2.8561   -0.9966   47.0000 H       1  ZINC000451500596    0.0900
      9 C9          3.7559   -2.7788   47.8566 C.3     1  ZINC000451500596   -0.1200
     10 C10         4.2134   -3.6255   46.6430 C.3     1  ZINC000451500596   -0.1300
     11 C11         5.3455   -2.7629   46.0316 C.3     1  ZINC000451500596   -0.1300
     12 C12         4.8443   -1.3116   46.1922 C.3     1  ZINC000451500596    0.1400
     13 H13         5.6792   -0.6525   46.4302 H       1  ZINC000451500596    0.1000
     14 N14         4.1901   -0.8673   44.9590 N.am    1  ZINC000451500596   -0.7200
     15 C15         4.4245    0.3705   44.4802 C.2     1  ZINC000451500596    0.5300
     16 O16         5.1759    1.1171   45.0710 O.2     1  ZINC000451500596   -0.5300
     17 C17         3.7531    0.8271   43.2106 C.3     1  ZINC000451500596   -0.1300
     18 H18         4.0878    1.8278   42.9376 H       1  ZINC000451500596    0.1000
     19 C19         4.0218   -0.1749   42.0571 C.3     1  ZINC000451500596   -0.1200
     20 C20         2.7908    0.0589   41.1463 C.3     1  ZINC000451500596    0.0500
     21 N21         1.6693    0.2940   42.0805 N.3     1  ZINC000451500596   -0.4900
     22 C22         0.7558    1.2058   41.5466 C.ar    1  ZINC000451500596    0.0800
     23 C23         1.1650    2.4936   41.2244 C.ar    1  ZINC000451500596   -0.0900
     24 C24         0.2593    3.3925   40.6963 C.ar    1  ZINC000451500596   -0.1100
     25 C25        -1.0539    3.0120   40.4886 C.ar    1  ZINC000451500596   -0.1200
     26 C26        -1.4647    1.7308   40.8082 C.ar    1  ZINC000451500596   -0.1100
     27 C27        -0.5628    0.8251   41.3313 C.ar    1  ZINC000451500596   -0.1500
     28 C28         2.2177    0.7872   43.3605 C.3     1  ZINC000451500596    0.0600
     29 H29         6.7050    1.6933   50.0101 H       1  ZINC000451500596    0.1300
     30 H30         5.0110    1.5482   50.5372 H       1  ZINC000451500596    0.1300
     31 H31         6.3260    1.4599   51.7336 H       1  ZINC000451500596    0.1300
     32 H32         6.2531   -1.2591   48.2937 H       1  ZINC000451500596    0.4200
     33 H33         3.6217   -0.4573   49.3143 H       1  ZINC000451500596    0.0700
     34 H34         4.3701    0.6210   48.1121 H       1  ZINC000451500596    0.0900
     35 H35         4.4292   -2.9272   48.7008 H       1  ZINC000451500596    0.0800
     36 H36         2.7328   -3.0318   48.1343 H       1  ZINC000451500596    0.0700
     37 H37         4.5976   -4.5920   46.9691 H       1  ZINC000451500596    0.0700
     38 H38         3.3977   -3.7529   45.9314 H       1  ZINC000451500596    0.0700
     39 H39         6.2754   -2.9088   46.5812 H       1  ZINC000451500596    0.0800
     40 H40         5.4822   -3.0044   44.9776 H       1  ZINC000451500596    0.0700
     41 H41         3.5883   -1.4639   44.4871 H       1  ZINC000451500596    0.4000
     42 H42         4.9464    0.0703   41.5343 H       1  ZINC000451500596    0.0800
     43 H43         4.0445   -1.1998   42.4275 H       1  ZINC000451500596    0.0800
     44 H44         2.9473    0.9325   40.5136 H       1  ZINC000451500596    0.0600
     45 H45         2.5976   -0.8232   40.5357 H       1  ZINC000451500596    0.0900
     46 H46         2.1903    2.7916   41.3870 H       1  ZINC000451500596    0.1300
     47 H47         0.5768    4.3938   40.4456 H       1  ZINC000451500596    0.1300
     48 H48        -1.7603    3.7171   40.0761 H       1  ZINC000451500596    0.1200
     49 H49        -2.4909    1.4369   40.6447 H       1  ZINC000451500596    0.1200
     50 H50        -0.8841   -0.1754   41.5805 H       1  ZINC000451500596    0.1200
     51 H51         1.9438    0.1078   44.1676 H       1  ZINC000451500596    0.1000
     52 H52         1.8344    1.7863   43.5677 H       1  ZINC000451500596    0.0700
@<TRIPOS>BOND
     1     1     2    1
     2     1    29    1
     3     1    30    1
     4     1    31    1
     5     2     3    2
     6     2     4    2
     7     2     5   am
     8     5     6    1
     9     5    32    1
    10     6     7    1
    11     6    33    1
    12     6    34    1
    13     7     8    1
    14     7    12    1
    15     7     9    1
    16     9    10    1
    17     9    35    1
    18     9    36    1
    19    10    11    1
    20    10    37    1
    21    10    38    1
    22    11    12    1
    23    11    39    1
    24    11    40    1
    25    12    13    1
    26    12    14    1
    27    14    15   am
    28    14    41    1
    29    15    16    2
    30    15    17    1
    31    17    18    1
    32    17    28    1
    33    17    19    1
    34    19    20    1
    35    19    42    1
    36    19    43    1
    37    20    21    1
    38    20    44    1
    39    20    45    1
    40    21    22    1
    41    21    28    1
    42    22    27   ar
    43    22    23   ar
    44    23    24   ar
    45    23    46    1
    46    24    25   ar
    47    24    47    1
    48    25    26   ar
    49    25    48    1
    50    26    27   ar
    51    26    49    1
    52    27    50    1
    53    28    51    1
    54    28    52    1
@<TRIPOS>SUBSTRUCTURE
     1 ZINC000451500596        1 TEMP              0 ****  ****    0 ROOT


##########                                Name:    ZINC001109404798
##########                DOCK_Rotatable_Bonds:                   7
##########                         Heavy_Atoms:                  25
##########                    Molecular_Weight:              360.48
##########                DOCK_Rotatable_Bonds:                   7
##########                       Formal_Charge:           0.0100002
##########                     HBond_Acceptors:                   7
##########                        HBond_Donors:                   1
##########                         Heavy_Atoms:                  25
##########                          Grid_Score:          -28.557337
##########                     Grid_vdw_energy:          -29.523254
##########                      Grid_es_energy:            0.965917
##########           Internal_energy_repulsive:           28.325306

@<TRIPOS>MOLECULE
ZINC001109404798
 49 52 1 0 0
SMALL
USER_CHARGES


@<TRIPOS>ATOM
      1 C1         -7.9966    0.9193   64.6872 C.3     1  ZINC001109404798   -0.0600
      2 C2         -7.6384    0.7261   63.2361 C.2     1  ZINC001109404798    0.1700
      3 N3         -6.5133    0.2662   62.7763 N.2     1  ZINC001109404798   -0.3900
      4 O4         -6.5379    0.2316   61.5641 O.3     1  ZINC001109404798    0.1000
      5 C5         -7.7168    0.6796   61.1220 C.2     1  ZINC001109404798    0.1900
      6 C6         -8.1499    0.7977   59.6834 C.3     1  ZINC001109404798    0.1600
      7 H7         -8.9925    1.4855   59.6129 H       1  ZINC001109404798    0.1000
      8 C8         -8.5699   -0.5784   59.1628 C.3     1  ZINC001109404798   -0.1500
      9 N9         -7.0332    1.3068   58.8760 N.3     1  ZINC001109404798   -0.4800
     10 C10        -6.6187    2.6809   59.3336 C.3     1  ZINC001109404798    0.0400
     11 H11        -6.2299    2.7468   60.3498 H       1  ZINC001109404798    0.1100
     12 C12        -7.9201    3.4925   59.0569 C.3     1  ZINC001109404798   -0.1600
     13 C13        -8.5145    2.8067   57.8024 C.3     1  ZINC001109404798   -0.1600
     14 C14        -7.4927    1.6724   57.4887 C.3     1  ZINC001109404798    0.0400
     15 H15        -7.8732    0.8509   56.8815 H       1  ZINC001109404798    0.1200
     16 C16        -6.2386    2.4035   56.9218 C.3     1  ZINC001109404798    0.1500
     17 H17        -5.5327    1.6861   56.5034 H       1  ZINC001109404798    0.1000
     18 N18        -6.6293    3.3896   55.9114 N.am    1  ZINC001109404798   -0.7200
     19 C19        -6.8055    3.0086   54.6307 C.2     1  ZINC001109404798    0.5100
     20 O20        -6.6422    1.8490   54.3150 O.2     1  ZINC001109404798   -0.5300
     21 C21        -7.2057    4.0233   53.5908 C.3     1  ZINC001109404798   -0.1300
     22 C22        -6.4899    3.7142   52.2744 C.3     1  ZINC001109404798   -0.0400
     23 C23        -5.0031    3.6557   52.5127 C.2     1  ZINC001109404798   -0.1000
     24 C24        -4.3820    4.4640   53.3730 C.2     1  ZINC001109404798   -0.2100
     25 S25        -2.6603    4.1044   53.3824 S.3     1  ZINC001109404798    0.1000
     26 C26        -2.8876    2.8392   52.1820 C.2     1  ZINC001109404798   -0.2100
     27 C27        -4.1792    2.7551   51.8598 C.2     1  ZINC001109404798   -0.1300
     28 C28        -5.6224    3.0830   58.2046 C.3     1  ZINC001109404798   -0.1100
     29 N29        -8.4266    0.9923   62.1794 N.2     1  ZINC001109404798   -0.4800
     30 H30        -8.4544    0.0083   65.0728 H       1  ZINC001109404798    0.0900
     31 H31        -7.0948    1.1422   65.2574 H       1  ZINC001109404798    0.0900
     32 H32        -8.6996    1.7469   64.7807 H       1  ZINC001109404798    0.0900
     33 H33        -9.3984   -0.9562   59.7619 H       1  ZINC001109404798    0.0700
     34 H34        -8.8832   -0.4930   58.1223 H       1  ZINC001109404798    0.0800
     35 H35        -7.7273   -1.2663   59.2333 H       1  ZINC001109404798    0.0800
     36 H36        -8.6076    3.4141   59.8991 H       1  ZINC001109404798    0.0700
     37 H37        -7.6845    4.5360   58.8484 H       1  ZINC001109404798    0.0800
     38 H38        -9.4966    2.3883   58.0228 H       1  ZINC001109404798    0.0700
     39 H39        -8.5736    3.5104   56.9721 H       1  ZINC001109404798    0.0800
     40 H40        -6.7611    4.3168   56.1640 H       1  ZINC001109404798    0.4000
     41 H41        -8.2839    3.9802   53.4371 H       1  ZINC001109404798    0.0900
     42 H42        -6.9268    5.0209   53.9304 H       1  ZINC001109404798    0.1000
     43 H43        -6.8344    2.7540   51.8903 H       1  ZINC001109404798    0.0800
     44 H44        -6.7110    4.4965   51.5483 H       1  ZINC001109404798    0.0800
     45 H45        -4.8626    5.2234   53.9720 H       1  ZINC001109404798    0.1600
     46 H46        -2.1021    2.2216   51.7720 H       1  ZINC001109404798    0.1600
     47 H47        -4.5528    2.0436   51.1382 H       1  ZINC001109404798    0.1400
     48 H48        -5.6086    4.1675   58.0952 H       1  ZINC001109404798    0.0800
     49 H49        -4.6189    2.7028   58.3958 H       1  ZINC001109404798    0.0900
@<TRIPOS>BOND
     1     1     2    1
     2     1    30    1
     3     1    31    1
     4     1    32    1
     5     2    29    1
     6     2     3    2
     7     3     4    1
     8     4     5    1
     9     5     6    1
    10     5    29    2
    11     6     7    1
    12     6     8    1
    13     6     9    1
    14     8    33    1
    15     8    34    1
    16     8    35    1
    17     9    14    1
    18     9    10    1
    19    10    11    1
    20    10    28    1
    21    10    12    1
    22    12    13    1
    23    12    36    1
    24    12    37    1
    25    13    14    1
    26    13    38    1
    27    13    39    1
    28    14    15    1
    29    14    16    1
    30    16    17    1
    31    16    18    1
    32    16    28    1
    33    18    19   am
    34    18    40    1
    35    19    20    2
    36    19    21    1
    37    21    22    1
    38    21    41    1
    39    21    42    1
    40    22    23    1
    41    22    43    1
    42    22    44    1
    43    23    27    1
    44    23    24    2
    45    24    25    1
    46    24    45    1
    47    25    26    1
    48    26    27    2
    49    26    46    1
    50    27    47    1
    51    28    48    1
    52    28    49    1
@<TRIPOS>SUBSTRUCTURE
     1 ZINC001109404798        1 TEMP              0 ****  ****    0 ROOT


##########                                Name:    ZINC001513543414
##########                DOCK_Rotatable_Bonds:                   6
##########                         Heavy_Atoms:                  26
##########                    Molecular_Weight:             364.488
##########                DOCK_Rotatable_Bonds:                   6
##########                       Formal_Charge:         -0.00999974
##########                     HBond_Acceptors:                   7
##########                        HBond_Donors:                   0
##########                         Heavy_Atoms:                  26
##########                          Grid_Score:          -28.544577
##########                     Grid_vdw_energy:          -28.096491
##########                      Grid_es_energy:           -0.448086
##########           Internal_energy_repulsive:           13.295032

@<TRIPOS>MOLECULE
ZINC001513543414
 58 61 1 0 0
SMALL
USER_CHARGES


@<TRIPOS>ATOM
      1 C1         -8.0647    0.8350   61.0458 C.3     1  ZINC001513543414   -0.1500
      2 C2         -7.5756    2.2835   61.1037 C.3     1  ZINC001513543414   -0.1200
      3 C3         -7.5160    2.8587   59.6873 C.3     1  ZINC001513543414    0.1100
      4 C4         -7.4196    4.3844   59.7505 C.3     1  ZINC001513543414   -0.1500
      5 C5         -6.2928    2.2853   58.9401 C.3     1  ZINC001513543414   -0.1500
      6 C6         -6.8547    2.0634   57.5094 C.3     1  ZINC001513543414   -0.1500
      7 C7         -8.3196    1.6704   57.8264 C.3     1  ZINC001513543414    0.0700
      8 H8         -8.3810    0.6120   58.0795 H       1  ZINC001513543414    0.0800
      9 C9         -9.2237    1.9835   56.6324 C.3     1  ZINC001513543414    0.1100
     10 N10        -9.0438    0.9582   55.6016 N.pl3   1  ZINC001513543414   -0.4600
     11 C11        -9.5081   -0.3277   55.6265 C.2     1  ZINC001513543414    0.1900
     12 C12       -10.3104   -0.9665   56.7307 C.3     1  ZINC001513543414    0.1800
     13 H13       -10.0790   -0.4961   57.6863 H       1  ZINC001513543414    0.1000
     14 C14       -11.8259   -0.8538   56.4286 C.3     1  ZINC001513543414   -0.1500
     15 C15       -12.3795   -2.0522   57.2467 C.3     1  ZINC001513543414   -0.1500
     16 C16       -11.2416   -3.0880   57.1212 C.3     1  ZINC001513543414    0.0500
     17 O17       -10.0416   -2.3763   56.7908 O.3     1  ZINC001513543414   -0.3500
     18 N18        -9.1289   -0.8981   54.5180 N.2     1  ZINC001513543414   -0.2600
     19 N19        -8.4618   -0.0665   53.8002 N.2     1  ZINC001513543414   -0.3100
     20 C20        -8.3833    1.0901   54.4149 C.2     1  ZINC001513543414    0.3400
     21 N21        -7.7431    2.2281   53.9505 N.3     1  ZINC001513543414   -0.4500
     22 C22        -8.5247    2.8739   52.8745 C.3     1  ZINC001513543414    0.0500
     23 C23        -7.4628    3.4782   51.9223 C.3     1  ZINC001513543414   -0.1500
     24 C24        -6.3510    2.3971   51.9663 C.3     1  ZINC001513543414    0.0700
     25 H25        -6.5771    1.5835   51.2770 H       1  ZINC001513543414    0.0800
     26 O26        -5.0765    2.9705   51.6678 O.3     1  ZINC001513543414   -0.3800
     27 C27        -4.0297    2.0105   51.5110 C.3     1  ZINC001513543414    0.0300
     28 C28        -6.4030    1.9043   53.4278 C.3     1  ZINC001513543414    0.0600
     29 O29        -8.6876    2.4757   58.9576 O.3     1  ZINC001513543414   -0.3600
     30 H30        -8.1072    0.4252   62.0550 H       1  ZINC001513543414    0.0500
     31 H31        -9.0586    0.8047   60.5994 H       1  ZINC001513543414    0.0500
     32 H32        -7.3769    0.2430   60.4420 H       1  ZINC001513543414    0.0600
     33 H33        -8.2633    2.8754   61.7076 H       1  ZINC001513543414    0.0700
     34 H34        -6.5817    2.3138   61.5503 H       1  ZINC001513543414    0.0600
     35 H35        -6.5118    4.6693   60.2823 H       1  ZINC001513543414    0.0700
     36 H36        -7.3900    4.7888   58.7387 H       1  ZINC001513543414    0.0600
     37 H37        -8.2881    4.7818   60.2755 H       1  ZINC001513543414    0.0700
     38 H38        -5.4736    3.0042   58.9279 H       1  ZINC001513543414    0.0900
     39 H39        -5.9754    1.3412   59.3829 H       1  ZINC001513543414    0.0800
     40 H40        -6.8123    2.9819   56.9239 H       1  ZINC001513543414    0.0800
     41 H41        -6.3311    1.2524   57.0031 H       1  ZINC001513543414    0.0900
     42 H42       -10.2641    1.9935   56.9573 H       1  ZINC001513543414    0.1000
     43 H43        -8.9611    2.9594   56.2240 H       1  ZINC001513543414    0.1100
     44 H44       -12.2300    0.0908   56.7931 H       1  ZINC001513543414    0.0900
     45 H45       -12.0248   -0.9793   55.3643 H       1  ZINC001513543414    0.0900
     46 H46       -12.5356   -1.7717   58.2884 H       1  ZINC001513543414    0.0800
     47 H47       -13.3003   -2.4319   56.8039 H       1  ZINC001513543414    0.0900
     48 H48       -11.1109   -3.6103   58.0689 H       1  ZINC001513543414    0.0700
     49 H49       -11.4777   -3.8029   56.3331 H       1  ZINC001513543414    0.0700
     50 H50        -9.1292    2.1349   52.3487 H       1  ZINC001513543414    0.0600
     51 H51        -9.1577    3.6606   53.2851 H       1  ZINC001513543414    0.0900
     52 H52        -7.8605    3.5884   50.9134 H       1  ZINC001513543414    0.0800
     53 H53        -7.0954    4.4317   52.3018 H       1  ZINC001513543414    0.0900
     54 H54        -3.0954    2.5251   51.2864 H       1  ZINC001513543414    0.0900
     55 H55        -3.9180    1.4408   52.4335 H       1  ZINC001513543414    0.0400
     56 H56        -4.2772    1.3333   50.6935 H       1  ZINC001513543414    0.0400
     57 H57        -5.6415    2.4139   54.0182 H       1  ZINC001513543414    0.1000
     58 H58        -6.2421    0.8267   53.4616 H       1  ZINC001513543414    0.0900
@<TRIPOS>BOND
     1     1     2    1
     2     1    30    1
     3     1    31    1
     4     1    32    1
     5     2     3    1
     6     2    33    1
     7     2    34    1
     8     3    29    1
     9     3     4    1
    10     3     5    1
    11     4    35    1
    12     4    36    1
    13     4    37    1
    14     5     6    1
    15     5    38    1
    16     5    39    1
    17     6     7    1
    18     6    40    1
    19     6    41    1
    20     7     8    1
    21     7     9    1
    22     7    29    1
    23     9    10    1
    24     9    42    1
    25     9    43    1
    26    10    20    1
    27    10    11    1
    28    11    12    1
    29    11    18    2
    30    12    13    1
    31    12    17    1
    32    12    14    1
    33    14    15    1
    34    14    44    1
    35    14    45    1
    36    15    16    1
    37    15    46    1
    38    15    47    1
    39    16    17    1
    40    16    48    1
    41    16    49    1
    42    18    19    1
    43    19    20    2
    44    20    21    1
    45    21    28    1
    46    21    22    1
    47    22    23    1
    48    22    50    1
    49    22    51    1
    50    23    24    1
    51    23    52    1
    52    23    53    1
    53    24    25    1
    54    24    26    1
    55    24    28    1
    56    26    27    1
    57    27    54    1
    58    27    55    1
    59    27    56    1
    60    28    57    1
    61    28    58    1
@<TRIPOS>SUBSTRUCTURE
     1 ZINC001513543414        1 TEMP              0 ****  ****    0 ROOT


##########                                Name:    ZINC001085711660
##########                DOCK_Rotatable_Bonds:                   8
##########                         Heavy_Atoms:                  25
##########                    Molecular_Weight:             347.414
##########                DOCK_Rotatable_Bonds:                   8
##########                       Formal_Charge:         -0.00999993
##########                     HBond_Acceptors:                   7
##########                        HBond_Donors:                   0
##########                         Heavy_Atoms:                  25
##########                          Grid_Score:          -28.540869
##########                     Grid_vdw_energy:          -28.203743
##########                      Grid_es_energy:           -0.337126
##########           Internal_energy_repulsive:           11.437926

@<TRIPOS>MOLECULE
ZINC001085711660
 50 52 1 0 0
SMALL
USER_CHARGES


@<TRIPOS>ATOM
      1 C1        -15.7389   -2.6276   56.9792 C.3     1  ZINC001085711660    0.0300
      2 O2        -14.4202   -2.3516   56.5029 O.3     1  ZINC001085711660   -0.3800
      3 C3        -13.3812   -2.8076   57.3716 C.3     1  ZINC001085711660    0.1400
      4 C4        -12.0407   -2.4617   56.7763 C.2     1  ZINC001085711660    0.0100
      5 C5        -10.8470   -2.9340   57.1980 C.2     1  ZINC001085711660   -0.1900
      6 C6         -9.8631   -2.3640   56.3749 C.2     1  ZINC001085711660   -0.1200
      7 C7        -10.5146   -1.5627   55.4817 C.2     1  ZINC001085711660   -0.0700
      8 C8         -9.8874   -0.7630   54.4245 C.2     1  ZINC001085711660    0.6000
      9 O9         -9.8842   -1.1670   53.2765 O.2     1  ZINC001085711660   -0.5200
     10 N10        -9.3144    0.4196   54.7242 N.am    1  ZINC001085711660   -0.6000
     11 C11        -9.3180    0.9060   56.1061 C.3     1  ZINC001085711660    0.0700
     12 C12        -8.6878    1.2185   53.6680 C.3     1  ZINC001085711660    0.1300
     13 C13        -9.5484    2.4509   53.3825 C.3     1  ZINC001085711660    0.0000
     14 H14        -9.2923    3.2998   54.0164 H       1  ZINC001085711660    0.1000
     15 C15       -11.0532    2.1499   53.3419 C.3     1  ZINC001085711660   -0.1400
     16 C16       -11.0456    3.1456   52.1735 C.3     1  ZINC001085711660    0.0100
     17 N17        -9.6304    2.7912   51.9498 N.3     1  ZINC001085711660   -0.4500
     18 C18        -8.8308    3.9849   51.6440 C.3     1  ZINC001085711660    0.1500
     19 H19        -9.1750    4.8192   52.2551 H       1  ZINC001085711660    0.1000
     20 C20        -8.9874    4.3383   50.1636 C.3     1  ZINC001085711660   -0.1900
     21 C21        -7.3800    3.7079   51.9435 C.2     1  ZINC001085711660    0.2000
     22 N22        -6.6738    4.2850   52.8736 N.2     1  ZINC001085711660   -0.4700
     23 C23        -5.4266    3.7832   52.8418 C.2     1  ZINC001085711660   -0.0400
     24 C24        -5.3792    2.8707   51.8571 C.2     1  ZINC001085711660   -0.0500
     25 C25        -4.1813    2.0498   51.4542 C.3     1  ZINC001085711660   -0.0700
     26 O26        -6.6058    2.8235   51.3009 O.3     1  ZINC001085711660   -0.2000
     27 O27       -11.8367   -1.6398   55.7387 O.3     1  ZINC001085711660   -0.1500
     28 H28       -15.8657   -3.7040   57.0947 H       1  ZINC001085711660    0.0500
     29 H29       -15.8871   -2.1388   57.9422 H       1  ZINC001085711660    0.0500
     30 H30       -16.4699   -2.2503   56.2640 H       1  ZINC001085711660    0.0900
     31 H31       -13.4825   -2.3253   58.3437 H       1  ZINC001085711660    0.0900
     32 H32       -13.4570   -3.8883   57.4926 H       1  ZINC001085711660    0.0700
     33 H33       -10.6811   -3.6210   58.0147 H       1  ZINC001085711660    0.1600
     34 H34        -8.7973   -2.5275   56.4364 H       1  ZINC001085711660    0.1600
     35 H35        -8.4840    0.4622   56.6497 H       1  ZINC001085711660    0.0600
     36 H36        -9.2176    1.9913   56.1094 H       1  ZINC001085711660    0.0900
     37 H37       -10.2553    0.6264   56.5871 H       1  ZINC001085711660    0.0800
     38 H38        -7.6962    1.5348   53.9916 H       1  ZINC001085711660    0.0900
     39 H39        -8.6003    0.6186   52.7621 H       1  ZINC001085711660    0.0900
     40 H40       -11.2961    1.1268   53.0549 H       1  ZINC001085711660    0.1000
     41 H41       -11.6012    2.4949   54.2188 H       1  ZINC001085711660    0.0800
     42 H42       -11.7014    2.8563   51.3523 H       1  ZINC001085711660    0.0900
     43 H43       -11.1892    4.1805   52.4839 H       1  ZINC001085711660    0.0800
     44 H44        -8.7469    3.4669   49.5546 H       1  ZINC001085711660    0.0800
     45 H45       -10.0154    4.6444   49.9699 H       1  ZINC001085711660    0.0800
     46 H46        -8.3114    5.1554   49.9116 H       1  ZINC001085711660    0.0700
     47 H47        -4.6101    4.0636   53.4907 H       1  ZINC001085711660    0.1800
     48 H48        -4.1705    1.1198   52.0226 H       1  ZINC001085711660    0.0800
     49 H49        -4.2371    1.8241   50.3893 H       1  ZINC001085711660    0.0800
     50 H50        -3.2702    2.6117   51.6593 H       1  ZINC001085711660    0.0900
@<TRIPOS>BOND
     1     1     2    1
     2     1    28    1
     3     1    29    1
     4     1    30    1
     5     2     3    1
     6     3     4    1
     7     3    31    1
     8     3    32    1
     9     4    27    1
    10     4     5    2
    11     5     6    1
    12     5    33    1
    13     6     7    2
    14     6    34    1
    15     7     8    1
    16     7    27    1
    17     8     9    2
    18     8    10   am
    19    10    11    1
    20    10    12    1
    21    11    35    1
    22    11    36    1
    23    11    37    1
    24    12    13    1
    25    12    38    1
    26    12    39    1
    27    13    14    1
    28    13    17    1
    29    13    15    1
    30    15    16    1
    31    15    40    1
    32    15    41    1
    33    16    17    1
    34    16    42    1
    35    16    43    1
    36    17    18    1
    37    18    19    1
    38    18    20    1
    39    18    21    1
    40    20    44    1
    41    20    45    1
    42    20    46    1
    43    21    26    1
    44    21    22    2
    45    22    23    1
    46    23    24    2
    47    23    47    1
    48    24    25    1
    49    24    26    1
    50    25    48    1
    51    25    49    1
    52    25    50    1
@<TRIPOS>SUBSTRUCTURE
     1 ZINC001085711660        1 TEMP              0 ****  ****    0 ROOT


##########                                Name:    ZINC000948289723
##########                DOCK_Rotatable_Bonds:                   6
##########                         Heavy_Atoms:                  24
##########                    Molecular_Weight:             331.415
##########                DOCK_Rotatable_Bonds:                   6
##########                       Formal_Charge:           0.0599999
##########                     HBond_Acceptors:                   6
##########                        HBond_Donors:                   1
##########                         Heavy_Atoms:                  24
##########                          Grid_Score:          -28.525650
##########                     Grid_vdw_energy:          -28.715508
##########                      Grid_es_energy:            0.189858
##########           Internal_energy_repulsive:            7.228999

@<TRIPOS>MOLECULE
ZINC000948289723
 49 52 1 0 0
SMALL
USER_CHARGES


@<TRIPOS>ATOM
      1 C1         -4.5205    1.9093   51.3137 C.3     1  ZINC000948289723   -0.1400
      2 C2         -5.2989    2.9382   52.1363 C.3     1  ZINC000948289723   -0.1100
      3 C3         -6.0208    2.3354   53.3530 C.3     1  ZINC000948289723   -0.1100
      4 C4         -5.5951    3.5927   54.1295 C.3     1  ZINC000948289723   -0.1400
      5 C5         -5.1590    3.3098   55.5440 C.2     1  ZINC000948289723    0.5400
      6 O6         -3.9869    3.3902   55.8449 O.2     1  ZINC000948289723   -0.5300
      7 N7         -6.0717    2.9673   56.4747 N.am    1  ZINC000948289723   -0.6200
      8 C8         -7.5181    2.8333   56.2478 C.3     1  ZINC000948289723    0.1100
      9 C9         -8.1536    2.3999   57.5856 C.3     1  ZINC000948289723   -0.1100
     10 H10        -8.5411    3.2635   58.1262 H       1  ZINC000948289723    0.1000
     11 C11        -9.2600    1.3695   57.3509 C.3     1  ZINC000948289723   -0.1400
     12 C12        -6.9602    1.7656   58.3479 C.3     1  ZINC000948289723    0.1400
     13 H13        -6.8050    0.7317   58.0397 H       1  ZINC000948289723    0.1200
     14 N14        -7.1555    1.8550   59.7970 N.am    1  ZINC000948289723   -0.7100
     15 C15        -6.9320    0.7774   60.5749 C.2     1  ZINC000948289723    0.6100
     16 O16        -6.5669   -0.2686   60.0742 O.2     1  ZINC000948289723   -0.5000
     17 C17        -7.1304    0.8669   62.0339 C.2     1  ZINC000948289723   -0.0900
     18 C18        -7.5895    1.9474   62.7366 C.2     1  ZINC000948289723   -0.1400
     19 C19        -7.5875    1.5040   64.0779 C.2     1  ZINC000948289723    0.0500
     20 C20        -8.0045    2.2973   65.2895 C.3     1  ZINC000948289723   -0.0900
     21 C21        -8.7323    1.5486   66.4078 C.3     1  ZINC000948289723   -0.1600
     22 C22        -7.2854    2.0039   66.6078 C.3     1  ZINC000948289723   -0.1600
     23 N23        -7.1555    0.2766   64.0628 N.2     1  ZINC000948289723   -0.3300
     24 O24        -6.9017   -0.1000   62.9425 O.3     1  ZINC000948289723    0.1200
     25 C25        -5.7842    2.6589   57.8874 C.3     1  ZINC000948289723    0.0900
     26 C26        -4.4265    3.7140   53.1373 C.3     1  ZINC000948289723   -0.1200
     27 H27        -4.0650    1.1789   51.9825 H       1  ZINC000948289723    0.0600
     28 H28        -5.2005    1.4013   50.6299 H       1  ZINC000948289723    0.0600
     29 H29        -3.7416    2.4147   50.7428 H       1  ZINC000948289723    0.0600
     30 H30        -5.9336    3.5778   51.5230 H       1  ZINC000948289723    0.0900
     31 H31        -7.0993    2.2478   53.2215 H       1  ZINC000948289723    0.0700
     32 H32        -5.5624    1.4180   53.7223 H       1  ZINC000948289723    0.1000
     33 H33        -6.3125    4.4106   54.0633 H       1  ZINC000948289723    0.1100
     34 H34        -7.9341    3.7901   55.9325 H       1  ZINC000948289723    0.0800
     35 H35        -7.7053    2.0763   55.4861 H       1  ZINC000948289723    0.0800
     36 H36        -8.8457    0.5025   56.8365 H       1  ZINC000948289723    0.0600
     37 H37        -9.6765    1.0589   58.3091 H       1  ZINC000948289723    0.0600
     38 H38       -10.0459    1.8133   56.7397 H       1  ZINC000948289723    0.0700
     39 H39        -7.4456    2.6899   60.1967 H       1  ZINC000948289723    0.4100
     40 H40        -7.8841    2.9138   62.3551 H       1  ZINC000948289723    0.1800
     41 H41        -8.3019    3.3281   65.0970 H       1  ZINC000948289723    0.1300
     42 H42        -9.5089    2.0867   66.9513 H       1  ZINC000948289723    0.1100
     43 H43        -8.9095    0.4823   66.2672 H       1  ZINC000948289723    0.1000
     44 H44        -6.5106    1.2373   66.5986 H       1  ZINC000948289723    0.1000
     45 H45        -7.1101    2.8417   67.2826 H       1  ZINC000948289723    0.1100
     46 H46        -4.8408    2.1202   57.9773 H       1  ZINC000948289723    0.0900
     47 H47        -5.7544    3.5781   58.4723 H       1  ZINC000948289723    0.0800
     48 H48        -3.5322    3.1735   53.4476 H       1  ZINC000948289723    0.0900
     49 H49        -4.2178    4.7392   52.8316 H       1  ZINC000948289723    0.0800
@<TRIPOS>BOND
     1     1     2    1
     2     1    27    1
     3     1    28    1
     4     1    29    1
     5     2    26    1
     6     2     3    1
     7     2    30    1
     8     3     4    1
     9     3    31    1
    10     3    32    1
    11     4     5    1
    12     4    26    1
    13     4    33    1
    14     5     6    2
    15     5     7   am
    16     7    25    1
    17     7     8    1
    18     8     9    1
    19     8    34    1
    20     8    35    1
    21     9    10    1
    22     9    11    1
    23     9    12    1
    24    11    36    1
    25    11    37    1
    26    11    38    1
    27    12    13    1
    28    12    14    1
    29    12    25    1
    30    14    15   am
    31    14    39    1
    32    15    16    2
    33    15    17    1
    34    17    24    1
    35    17    18    2
    36    18    19    1
    37    18    40    1
    38    19    20    1
    39    19    23    2
    40    20    22    1
    41    20    21    1
    42    20    41    1
    43    21    22    1
    44    21    42    1
    45    21    43    1
    46    22    44    1
    47    22    45    1
    48    23    24    1
    49    25    46    1
    50    25    47    1
    51    26    48    1
    52    26    49    1
@<TRIPOS>SUBSTRUCTURE
     1 ZINC000948289723        1 TEMP              0 ****  ****    0 ROOT


##########                                Name:    ZINC000558213406
##########                DOCK_Rotatable_Bonds:                   8
##########                         Heavy_Atoms:                  30
##########                    Molecular_Weight:               408.5
##########                DOCK_Rotatable_Bonds:                   8
##########                       Formal_Charge:          -0.0299987
##########                     HBond_Acceptors:                   7
##########                        HBond_Donors:                   2
##########                         Heavy_Atoms:                  30
##########                          Grid_Score:          -28.515703
##########                     Grid_vdw_energy:          -28.071564
##########                      Grid_es_energy:           -0.444139
##########           Internal_energy_repulsive:           24.977524

@<TRIPOS>MOLECULE
ZINC000558213406
 58 61 1 0 0
SMALL
USER_CHARGES


@<TRIPOS>ATOM
      1 O1         -8.9138    1.6841   59.5837 O.2     1  ZINC000558213406   -0.5700
      2 C2         -7.9146    1.1338   60.0046 C.2     1  ZINC000558213406    0.7100
      3 N3         -6.7510    1.2440   59.3334 N.am    1  ZINC000558213406   -0.6800
      4 C4         -6.6942    1.9881   58.1472 C.ar    1  ZINC000558213406    0.1700
      5 C5         -7.5149    1.6543   57.0781 C.ar    1  ZINC000558213406   -0.1300
      6 C6         -7.4589    2.3881   55.9098 C.ar    1  ZINC000558213406   -0.1100
      7 C7         -6.5824    3.4584   55.8038 C.ar    1  ZINC000558213406    0.0600
      8 O8         -6.5273    4.1803   54.6530 O.3     1  ZINC000558213406   -0.2500
      9 C9         -6.1047    3.5513   53.5250 C.ar    1  ZINC000558213406    0.0700
     10 C10        -6.9816    3.3360   52.4664 C.ar    1  ZINC000558213406   -0.1500
     11 C11        -6.5044    2.6904   51.3370 C.ar    1  ZINC000558213406   -0.1300
     12 C12        -5.1837    2.2846   51.2991 C.ar    1  ZINC000558213406    0.0600
     13 N13        -4.3783    2.5037   52.3202 N.ar    1  ZINC000558213406   -0.4500
     14 C14        -4.7908    3.1196   53.4100 C.ar    1  ZINC000558213406    0.0800
     15 C15        -5.7625    3.7926   56.8720 C.ar    1  ZINC000558213406   -0.1000
     16 C16        -5.8214    3.0627   58.0427 C.ar    1  ZINC000558213406   -0.1100
     17 N17        -7.9692    0.4182   61.1454 N.am    1  ZINC000558213406   -0.7300
     18 C18        -9.2340    0.2984   61.8751 C.3     1  ZINC000558213406    0.1500
     19 H19        -9.1145   -0.3431   62.7483 H       1  ZINC000558213406    0.1100
     20 C20        -9.7632    1.6967   62.2894 C.3     1  ZINC000558213406   -0.1400
     21 C21       -11.2875    1.4367   62.3844 C.3     1  ZINC000558213406    0.1000
     22 N22       -11.5795    0.4990   61.2848 N.am    1  ZINC000558213406   -0.6200
     23 C23       -12.7759    0.3402   60.6849 C.2     1  ZINC000558213406    0.5400
     24 O24       -13.7267    1.0020   61.0436 O.2     1  ZINC000558213406   -0.5300
     25 C25       -12.9320   -0.6598   59.5683 C.3     1  ZINC000558213406   -0.1000
     26 C26       -14.3278   -1.2828   59.6332 C.3     1  ZINC000558213406   -0.1100
     27 C27       -14.4863   -2.2981   58.4996 C.3     1  ZINC000558213406   -0.1200
     28 C28       -14.3048   -1.5927   57.1541 C.3     1  ZINC000558213406   -0.1200
     29 C29       -12.9090   -0.9696   57.0893 C.3     1  ZINC000558213406   -0.1200
     30 C30       -12.7505    0.0457   58.2229 C.3     1  ZINC000558213406   -0.1100
     31 C31       -10.3482   -0.2380   60.9519 C.3     1  ZINC000558213406    0.1000
     32 H32        -5.9530    0.8084   59.6714 H       1  ZINC000558213406    0.4100
     33 H33        -8.1967    0.8208   57.1603 H       1  ZINC000558213406    0.1300
     34 H34        -8.0973    2.1286   55.0782 H       1  ZINC000558213406    0.1400
     35 H35        -8.0090    3.6638   52.5238 H       1  ZINC000558213406    0.1400
     36 H36        -7.1569    2.5061   50.4964 H       1  ZINC000558213406    0.1400
     37 H37        -4.8062    1.7809   50.4214 H       1  ZINC000558213406    0.1600
     38 H38        -4.1018    3.2814   54.2258 H       1  ZINC000558213406    0.1700
     39 H39        -5.0804    4.6259   56.7889 H       1  ZINC000558213406    0.1400
     40 H40        -5.1833    3.3232   58.8742 H       1  ZINC000558213406    0.1500
     41 H41        -7.1712   -0.0174   61.4834 H       1  ZINC000558213406    0.4000
     42 H42        -9.3574    1.9977   63.2552 H       1  ZINC000558213406    0.0900
     43 H43        -9.5408    2.4410   61.5248 H       1  ZINC000558213406    0.0800
     44 H44       -11.5361    0.9847   63.3445 H       1  ZINC000558213406    0.0700
     45 H45       -11.8401    2.3661   62.2472 H       1  ZINC000558213406    0.0800
     46 H46       -12.1798   -1.4416   59.6730 H       1  ZINC000558213406    0.0900
     47 H47       -14.4572   -1.7855   60.5918 H       1  ZINC000558213406    0.0600
     48 H48       -15.0800   -0.5009   59.5286 H       1  ZINC000558213406    0.0700
     49 H49       -13.7342   -3.0800   58.6044 H       1  ZINC000558213406    0.0600
     50 H50       -15.4808   -2.7420   58.5458 H       1  ZINC000558213406    0.0700
     51 H51       -14.4177   -2.3160   56.3466 H       1  ZINC000558213406    0.0600
     52 H52       -15.0570   -0.8108   57.0495 H       1  ZINC000558213406    0.0600
     53 H53       -12.1568   -1.7515   57.1939 H       1  ZINC000558213406    0.0600
     54 H54       -12.7797   -0.4670   56.1307 H       1  ZINC000558213406    0.0700
     55 H55       -13.5026    0.8276   58.1181 H       1  ZINC000558213406    0.0800
     56 H56       -11.7560    0.4896   58.1766 H       1  ZINC000558213406    0.0600
     57 H57       -10.0805   -0.0612   59.9102 H       1  ZINC000558213406    0.0800
     58 H58       -10.4967   -1.3043   61.1228 H       1  ZINC000558213406    0.0800
@<TRIPOS>BOND
     1     1     2    2
     2     2     3   am
     3     2    17   am
     4     3     4    1
     5     3    32    1
     6     4    16   ar
     7     4     5   ar
     8     5     6   ar
     9     5    33    1
    10     6     7   ar
    11     6    34    1
    12     7     8    1
    13     7    15   ar
    14     8     9    1
    15     9    14   ar
    16     9    10   ar
    17    10    11   ar
    18    10    35    1
    19    11    12   ar
    20    11    36    1
    21    12    13   ar
    22    12    37    1
    23    13    14   ar
    24    14    38    1
    25    15    16   ar
    26    15    39    1
    27    16    40    1
    28    17    18    1
    29    17    41    1
    30    18    19    1
    31    18    31    1
    32    18    20    1
    33    20    21    1
    34    20    42    1
    35    20    43    1
    36    21    22    1
    37    21    44    1
    38    21    45    1
    39    22    23   am
    40    22    31    1
    41    23    24    2
    42    23    25    1
    43    25    30    1
    44    25    26    1
    45    25    46    1
    46    26    27    1
    47    26    47    1
    48    26    48    1
    49    27    28    1
    50    27    49    1
    51    27    50    1
    52    28    29    1
    53    28    51    1
    54    28    52    1
    55    29    30    1
    56    29    53    1
    57    29    54    1
    58    30    55    1
    59    30    56    1
    60    31    57    1
    61    31    58    1
@<TRIPOS>SUBSTRUCTURE
     1 ZINC000558213406        1 TEMP              0 ****  ****    0 ROOT


##########                                Name:    ZINC000790205345
##########                DOCK_Rotatable_Bonds:                   7
##########                         Heavy_Atoms:                  28
##########                    Molecular_Weight:             382.459
##########                DOCK_Rotatable_Bonds:                   7
##########                       Formal_Charge:          -0.0299997
##########                     HBond_Acceptors:                   6
##########                        HBond_Donors:                   0
##########                         Heavy_Atoms:                  28
##########                          Grid_Score:          -28.482201
##########                     Grid_vdw_energy:          -28.053722
##########                      Grid_es_energy:           -0.428478
##########           Internal_energy_repulsive:           23.461014

@<TRIPOS>MOLECULE
ZINC000790205345
 54 56 1 0 0
SMALL
USER_CHARGES


@<TRIPOS>ATOM
      1 C1         -9.5624    1.6101   63.5006 C.3     1  ZINC000790205345   -0.1100
      2 C2         -9.7678    0.8989   62.1879 C.ar    1  ZINC000790205345   -0.1300
      3 C3        -11.0281    0.8447   61.6224 C.ar    1  ZINC000790205345   -0.0800
      4 C4        -11.2190    0.1938   60.4187 C.ar    1  ZINC000790205345   -0.2100
      5 C5        -10.1448   -0.4056   59.7777 C.ar    1  ZINC000790205345    0.1300
      6 O6        -10.3298   -1.0461   58.5934 O.3     1  ZINC000790205345   -0.2900
      7 C7        -10.1777   -0.2679   57.4045 C.3     1  ZINC000790205345    0.0400
      8 C8         -9.9400   -1.1839   56.2317 C.2     1  ZINC000790205345    0.5200
      9 O9         -9.6475   -2.3459   56.4192 O.2     1  ZINC000790205345   -0.5100
     10 N10       -10.0524   -0.7119   54.9743 N.am    1  ZINC000790205345   -0.6100
     11 C11        -9.8231   -1.6030   53.8342 C.3     1  ZINC000790205345    0.0700
     12 C12       -10.4040    0.6920   54.7476 C.3     1  ZINC000790205345    0.1800
     13 H13       -11.0586    1.0365   55.5482 H       1  ZINC000790205345    0.1200
     14 C14       -11.1256    0.8267   53.4052 C.3     1  ZINC000790205345   -0.1600
     15 C15        -9.1498    1.5274   54.7297 C.ar    1  ZINC000790205345   -0.0700
     16 C16        -8.9661    2.5175   55.6770 C.ar    1  ZINC000790205345   -0.1300
     17 C17        -7.8168    3.2867   55.6637 C.ar    1  ZINC000790205345   -0.0900
     18 C18        -6.8486    3.0674   54.7038 C.ar    1  ZINC000790205345   -0.1500
     19 C19        -7.0299    2.0732   53.7511 C.ar    1  ZINC000790205345    0.1800
     20 N20        -6.0503    1.8482   52.7772 N.am    1  ZINC000790205345   -0.5700
     21 C21        -5.2906    2.8912   52.0711 C.3     1  ZINC000790205345    0.0600
     22 C22        -4.3656    2.0970   51.1288 C.3     1  ZINC000790205345    0.0400
     23 O23        -4.6975    0.7044   51.3998 O.3     1  ZINC000790205345   -0.3200
     24 C24        -5.6474    0.6472   52.3401 C.2     1  ZINC000790205345    0.6400
     25 O25        -6.1086   -0.3981   52.7540 O.2     1  ZINC000790205345   -0.5000
     26 C26        -8.1826    1.2993   53.7704 C.ar    1  ZINC000790205345   -0.1400
     27 C27        -8.8808   -0.3497   60.3474 C.ar    1  ZINC000790205345   -0.1500
     28 C28        -8.6942    0.3068   61.5482 C.ar    1  ZINC000790205345   -0.0500
     29 C29        -7.3217    0.3684   62.1673 C.3     1  ZINC000790205345   -0.1200
     30 H30        -9.3294    2.6583   63.3134 H       1  ZINC000790205345    0.0700
     31 H31       -10.4719    1.5410   64.0974 H       1  ZINC000790205345    0.0600
     32 H32        -8.7374    1.1452   64.0404 H       1  ZINC000790205345    0.0700
     33 H33       -11.8643    1.3111   62.1220 H       1  ZINC000790205345    0.1300
     34 H34       -12.2039    0.1512   59.9775 H       1  ZINC000790205345    0.1300
     35 H35       -11.0830    0.3144   57.2330 H       1  ZINC000790205345    0.1000
     36 H36        -9.3283    0.4057   57.5173 H       1  ZINC000790205345    0.0900
     37 H37       -10.7390   -2.1499   53.6106 H       1  ZINC000790205345    0.0600
     38 H38        -9.5308   -1.0133   52.9653 H       1  ZINC000790205345    0.0800
     39 H39        -9.0290   -2.3085   54.0784 H       1  ZINC000790205345    0.0700
     40 H40       -10.4710    0.4823   52.6046 H       1  ZINC000790205345    0.0600
     41 H41       -12.0328    0.2226   53.4181 H       1  ZINC000790205345    0.0700
     42 H42       -11.3872    1.8714   53.2365 H       1  ZINC000790205345    0.0800
     43 H43        -9.7219    2.6910   56.4288 H       1  ZINC000790205345    0.1300
     44 H44        -7.6765    4.0599   56.4045 H       1  ZINC000790205345    0.1300
     45 H45        -5.9515    3.6686   54.6937 H       1  ZINC000790205345    0.1300
     46 H46        -5.9612    3.5321   51.4987 H       1  ZINC000790205345    0.1000
     47 H47        -4.7043    3.4810   52.7757 H       1  ZINC000790205345    0.1000
     48 H48        -4.5764    2.3445   50.0884 H       1  ZINC000790205345    0.1100
     49 H49        -3.3198    2.2935   51.3651 H       1  ZINC000790205345    0.1100
     50 H50        -8.3264    0.5252   53.0311 H       1  ZINC000790205345    0.1600
     51 H51        -8.0429   -0.8158   59.8504 H       1  ZINC000790205345    0.1300
     52 H52        -6.8012    1.2568   61.8096 H       1  ZINC000790205345    0.0700
     53 H53        -7.4142    0.4138   63.2524 H       1  ZINC000790205345    0.0700
     54 H54        -6.7568   -0.5209   61.8877 H       1  ZINC000790205345    0.0700
@<TRIPOS>BOND
     1     1     2    1
     2     1    30    1
     3     1    31    1
     4     1    32    1
     5     2    28   ar
     6     2     3   ar
     7     3     4   ar
     8     3    33    1
     9     4     5   ar
    10     4    34    1
    11     5     6    1
    12     5    27   ar
    13     6     7    1
    14     7     8    1
    15     7    35    1
    16     7    36    1
    17     8     9    2
    18     8    10   am
    19    10    11    1
    20    10    12    1
    21    11    37    1
    22    11    38    1
    23    11    39    1
    24    12    13    1
    25    12    14    1
    26    12    15    1
    27    14    40    1
    28    14    41    1
    29    14    42    1
    30    15    26   ar
    31    15    16   ar
    32    16    17   ar
    33    16    43    1
    34    17    18   ar
    35    17    44    1
    36    18    19   ar
    37    18    45    1
    38    19    20    1
    39    19    26   ar
    40    20    24   am
    41    20    21    1
    42    21    22    1
    43    21    46    1
    44    21    47    1
    45    22    23    1
    46    22    48    1
    47    22    49    1
    48    23    24    1
    49    24    25    2
    50    26    50    1
    51    27    28   ar
    52    27    51    1
    53    28    29    1
    54    29    52    1
    55    29    53    1
    56    29    54    1
@<TRIPOS>SUBSTRUCTURE
     1 ZINC000790205345        1 TEMP              0 ****  ****    0 ROOT


##########                                Name:    ZINC000186105981
##########                DOCK_Rotatable_Bonds:                   6
##########                         Heavy_Atoms:                  26
##########                    Molecular_Weight:             396.873
##########                DOCK_Rotatable_Bonds:                   6
##########                       Formal_Charge:          -0.0400003
##########                     HBond_Acceptors:                   9
##########                        HBond_Donors:                   1
##########                         Heavy_Atoms:                  26
##########                          Grid_Score:          -28.472160
##########                     Grid_vdw_energy:          -28.403339
##########                      Grid_es_energy:           -0.068821
##########           Internal_energy_repulsive:           17.115541

@<TRIPOS>MOLECULE
ZINC000186105981
 44 46 1 0 0
SMALL
USER_CHARGES


@<TRIPOS>ATOM
      1 C1        -14.0201   -1.5055   59.9611 C.3     1  ZINC000186105981   -0.1400
      2 C2        -12.8102   -1.0635   59.1355 C.3     1  ZINC000186105981   -0.1100
      3 C3        -11.5301   -1.3004   59.9395 C.3     1  ZINC000186105981   -0.1600
      4 C4        -12.7547   -1.8729   57.8384 C.3     1  ZINC000186105981    0.1600
      5 H5        -12.3052   -2.8459   58.0362 H       1  ZINC000186105981    0.1200
      6 C6        -11.9251   -1.1339   56.8202 C.2     1  ZINC000186105981    0.4900
      7 O7        -12.0962    0.0540   56.6453 O.2     1  ZINC000186105981   -0.4300
      8 N8        -10.9929   -1.7930   56.1039 N.am    1  ZINC000186105981   -0.6300
      9 C9        -10.2279   -1.1115   55.1650 C.2     1  ZINC000186105981    0.2400
     10 N10       -10.2722   -1.2765   53.8736 N.2     1  ZINC000186105981   -0.2600
     11 N11        -9.5046   -0.5700   53.1652 N.2     1  ZINC000186105981   -0.2000
     12 C12        -8.7223    0.2744   53.7771 C.2     1  ZINC000186105981    0.0300
     13 C13        -7.7554    1.1888   53.1340 C.ar    1  ZINC000186105981   -0.0500
     14 C14        -7.9253    2.5723   53.2319 C.ar    1  ZINC000186105981    0.1300
     15 F15        -8.9748    3.0792   53.9151 F       1  ZINC000186105981   -0.1200
     16 C16        -7.0164    3.4208   52.6280 C.ar    1  ZINC000186105981   -0.1400
     17 C17        -5.9414    2.9031   51.9288 C.ar    1  ZINC000186105981   -0.0600
     18 C18        -5.7676    1.5341   51.8277 C.ar    1  ZINC000186105981   -0.1200
     19 C19        -6.6640    0.6742   52.4304 C.ar    1  ZINC000186105981    0.0200
     20 Cl20       -6.4430   -1.0429   52.3023 Cl      1  ZINC000186105981   -0.0100
     21 S21        -9.0290    0.1368   55.5095 S.3     1  ZINC000186105981    0.1200
     22 N22       -14.1124   -2.0584   57.3201 N.am    1  ZINC000186105981   -0.6100
     23 C23       -14.8531   -1.0465   56.5575 C.3     1  ZINC000186105981    0.1000
     24 C24       -16.0046   -1.8113   55.8680 C.3     1  ZINC000186105981   -0.1300
     25 C25       -16.1867   -3.0236   56.8103 C.3     1  ZINC000186105981   -0.1600
     26 C26       -14.8376   -3.1793   57.4769 C.2     1  ZINC000186105981    0.5200
     27 O27       -14.4670   -4.1686   58.0725 O.2     1  ZINC000186105981   -0.5000
     28 H28       -14.0595   -0.9289   60.8853 H       1  ZINC000186105981    0.0600
     29 H29       -14.9320   -1.3369   59.3884 H       1  ZINC000186105981    0.0600
     30 H30       -13.9307   -2.5658   60.1979 H       1  ZINC000186105981    0.0600
     31 H31       -12.8996   -0.0033   58.8988 H       1  ZINC000186105981    0.0900
     32 H32       -11.3920   -2.3702   60.0959 H       1  ZINC000186105981    0.0600
     33 H33       -10.6774   -0.9002   59.3910 H       1  ZINC000186105981    0.0600
     34 H34       -11.6091   -0.7993   60.9043 H       1  ZINC000186105981    0.0700
     35 H35       -10.8561   -2.7431   56.2437 H       1  ZINC000186105981    0.4200
     36 H36        -7.1462    4.4904   52.7022 H       1  ZINC000186105981    0.1500
     37 H37        -5.2343    3.5706   51.4590 H       1  ZINC000186105981    0.1500
     38 H38        -4.9259    1.1372   51.2797 H       1  ZINC000186105981    0.1500
     39 H39       -15.2536   -0.2868   57.2287 H       1  ZINC000186105981    0.0700
     40 H40       -14.2048   -0.5875   55.8110 H       1  ZINC000186105981    0.0800
     41 H41       -16.9097   -1.2051   55.8330 H       1  ZINC000186105981    0.0900
     42 H42       -15.7145   -2.1344   54.8682 H       1  ZINC000186105981    0.0800
     43 H43       -16.9607   -2.8191   57.5500 H       1  ZINC000186105981    0.1100
     44 H44       -16.4316   -3.9184   56.2378 H       1  ZINC000186105981    0.1000
@<TRIPOS>BOND
     1     1     2    1
     2     1    28    1
     3     1    29    1
     4     1    30    1
     5     2     3    1
     6     2     4    1
     7     2    31    1
     8     3    32    1
     9     3    33    1
    10     3    34    1
    11     4     5    1
    12     4     6    1
    13     4    22    1
    14     6     7    2
    15     6     8   am
    16     8     9    1
    17     8    35    1
    18     9    21    1
    19     9    10    2
    20    10    11    1
    21    11    12    2
    22    12    13    1
    23    12    21    1
    24    13    19   ar
    25    13    14   ar
    26    14    15    1
    27    14    16   ar
    28    16    17   ar
    29    16    36    1
    30    17    18   ar
    31    17    37    1
    32    18    19   ar
    33    18    38    1
    34    19    20    1
    35    22    26   am
    36    22    23    1
    37    23    24    1
    38    23    39    1
    39    23    40    1
    40    24    25    1
    41    24    41    1
    42    24    42    1
    43    25    26    1
    44    25    43    1
    45    25    44    1
    46    26    27    2
@<TRIPOS>SUBSTRUCTURE
     1 ZINC000186105981        1 TEMP              0 ****  ****    0 ROOT


##########                                Name:    ZINC000863246516
##########                DOCK_Rotatable_Bonds:                   5
##########                         Heavy_Atoms:                  25
##########                    Molecular_Weight:             356.489
##########                DOCK_Rotatable_Bonds:                   5
##########                       Formal_Charge:         -0.00999938
##########                     HBond_Acceptors:                   5
##########                        HBond_Donors:                   0
##########                         Heavy_Atoms:                  25
##########                          Grid_Score:          -28.470402
##########                     Grid_vdw_energy:          -29.037470
##########                      Grid_es_energy:            0.567068
##########           Internal_energy_repulsive:           14.899417

@<TRIPOS>MOLECULE
ZINC000863246516
 49 52 1 0 0
SMALL
USER_CHARGES


@<TRIPOS>ATOM
      1 C1        -14.1019   -2.2021   58.3510 C.3     1  ZINC000863246516   -0.0600
      2 C2        -12.8029   -2.2897   57.5920 C.2     1  ZINC000863246516   -0.2000
      3 C3        -12.5361   -1.7878   56.3943 C.2     1  ZINC000863246516    0.0900
      4 C4        -13.5708   -1.0243   55.6087 C.3     1  ZINC000863246516   -0.1000
      5 N5        -11.2795   -1.9961   55.9089 N.am    1  ZINC000863246516   -0.5300
      6 C6        -10.8744   -1.4861   54.5966 C.3     1  ZINC000863246516    0.1200
      7 C7         -9.8024   -0.4093   54.7768 C.3     1  ZINC000863246516   -0.1500
      8 C8        -10.0737    0.7326   53.8314 C.2     1  ZINC000863246516    0.5400
      9 O9        -11.1479    0.8169   53.2747 O.2     1  ZINC000863246516   -0.5300
     10 N10        -9.1225    1.6600   53.6046 N.am    1  ZINC000863246516   -0.6100
     11 C11        -9.2602    2.8157   52.7110 C.3     1  ZINC000863246516    0.1100
     12 C12        -8.1575    3.8160   53.1070 C.3     1  ZINC000863246516   -0.1300
     13 H13        -8.4882    4.6615   53.7100 H       1  ZINC000863246516    0.1000
     14 C14        -7.1902    4.1345   51.9548 C.3     1  ZINC000863246516   -0.1200
     15 C15        -6.5115    2.7865   52.2468 C.3     1  ZINC000863246516   -0.0600
     16 H16        -6.9455    1.9517   51.6965 H       1  ZINC000863246516    0.1000
     17 C17        -5.0085    2.8343   52.1469 C.ar    1  ZINC000863246516   -0.0700
     18 C18        -4.3392    1.9204   51.3546 C.ar    1  ZINC000863246516   -0.1200
     19 C19        -2.9606    1.9642   51.2630 C.ar    1  ZINC000863246516   -0.1200
     20 C20        -2.2513    2.9220   51.9633 C.ar    1  ZINC000863246516   -0.1200
     21 C21        -2.9208    3.8365   52.7549 C.ar    1  ZINC000863246516   -0.1200
     22 C22        -4.2998    3.7954   52.8431 C.ar    1  ZINC000863246516   -0.1200
     23 C23        -7.0455    2.9164   53.7019 C.3     1  ZINC000863246516   -0.1100
     24 H24        -6.3678    3.3831   54.4168 H       1  ZINC000863246516    0.1200
     25 C25        -7.7900    1.6757   54.2170 C.3     1  ZINC000863246516    0.1200
     26 C26       -10.4284   -2.6875   56.6833 C.2     1  ZINC000863246516    0.4800
     27 O27        -9.2723   -2.9751   56.4286 O.2     1  ZINC000863246516   -0.4700
     28 S28       -11.3042   -3.0788   58.1135 S.3     1  ZINC000863246516    0.0100
     29 H29       -13.9979   -2.7115   59.3091 H       1  ZINC000863246516    0.0700
     30 H30       -14.3533   -1.1553   58.5215 H       1  ZINC000863246516    0.0800
     31 H31       -14.8940   -2.6764   57.7716 H       1  ZINC000863246516    0.0800
     32 H32       -14.4982   -0.9767   56.1794 H       1  ZINC000863246516    0.0900
     33 H33       -13.2094   -0.0138   55.4178 H       1  ZINC000863246516    0.0800
     34 H34       -13.7533   -1.5300   54.6605 H       1  ZINC000863246516    0.0800
     35 H35       -10.4718   -2.3030   53.9978 H       1  ZINC000863246516    0.1000
     36 H36       -11.7393   -1.0568   54.0910 H       1  ZINC000863246516    0.1000
     37 H37        -9.8235   -0.0438   55.8035 H       1  ZINC000863246516    0.1000
     38 H38        -8.8216   -0.8336   54.5621 H       1  ZINC000863246516    0.1000
     39 H39        -9.1267    2.5042   51.6750 H       1  ZINC000863246516    0.0700
     40 H40       -10.2416    3.2722   52.8402 H       1  ZINC000863246516    0.0800
     41 H41        -7.6736    4.1767   50.9788 H       1  ZINC000863246516    0.0800
     42 H42        -6.5504    4.9955   52.1481 H       1  ZINC000863246516    0.0900
     43 H43        -4.8932    1.1721   50.8075 H       1  ZINC000863246516    0.1200
     44 H44        -2.4375    1.2498   50.6446 H       1  ZINC000863246516    0.1200
     45 H45        -1.1742    2.9558   51.8923 H       1  ZINC000863246516    0.1200
     46 H46        -2.3668    4.5846   53.3023 H       1  ZINC000863246516    0.1200
     47 H47        -4.8228    4.5098   53.4616 H       1  ZINC000863246516    0.1200
     48 H48        -7.8684    1.7174   55.3034 H       1  ZINC000863246516    0.0700
     49 H49        -7.2535    0.7743   53.9205 H       1  ZINC000863246516    0.0700
@<TRIPOS>BOND
     1     1     2    1
     2     1    29    1
     3     1    30    1
     4     1    31    1
     5     2    28    1
     6     2     3    2
     7     3     4    1
     8     3     5    1
     9     4    32    1
    10     4    33    1
    11     4    34    1
    12     5     6    1
    13     5    26   am
    14     6     7    1
    15     6    35    1
    16     6    36    1
    17     7     8    1
    18     7    37    1
    19     7    38    1
    20     8     9    2
    21     8    10   am
    22    10    25    1
    23    10    11    1
    24    11    12    1
    25    11    39    1
    26    11    40    1
    27    12    13    1
    28    12    23    1
    29    12    14    1
    30    14    15    1
    31    14    41    1
    32    14    42    1
    33    15    16    1
    34    15    17    1
    35    15    23    1
    36    17    22   ar
    37    17    18   ar
    38    18    19   ar
    39    18    43    1
    40    19    20   ar
    41    19    44    1
    42    20    21   ar
    43    20    45    1
    44    21    22   ar
    45    21    46    1
    46    22    47    1
    47    23    24    1
    48    23    25    1
    49    25    48    1
    50    25    49    1
    51    26    27    2
    52    26    28    1
@<TRIPOS>SUBSTRUCTURE
     1 ZINC000863246516        1 TEMP              0 ****  ****    0 ROOT


##########                                Name:    ZINC001400108193
##########                DOCK_Rotatable_Bonds:                   9
##########                         Heavy_Atoms:                  25
##########                    Molecular_Weight:              344.41
##########                DOCK_Rotatable_Bonds:                   9
##########                       Formal_Charge:           0.0200001
##########                     HBond_Acceptors:                   6
##########                        HBond_Donors:                   2
##########                         Heavy_Atoms:                  25
##########                          Grid_Score:          -28.459402
##########                     Grid_vdw_energy:          -27.616493
##########                      Grid_es_energy:           -0.842908
##########           Internal_energy_repulsive:            7.136690

@<TRIPOS>MOLECULE
ZINC001400108193
 49 50 1 0 0
SMALL
USER_CHARGES


@<TRIPOS>ATOM
      1 C1         -7.1820    2.8737   62.2608 C.3     1  ZINC001400108193   -0.0800
      2 C2         -7.9564    1.9786   61.3281 C.2     1  ZINC001400108193   -0.0100
      3 C3         -7.4623    0.9072   60.6890 C.2     1  ZINC001400108193   -0.1600
      4 C4         -8.5756    0.3571   59.9018 C.2     1  ZINC001400108193   -0.2300
      5 C5         -8.5464   -0.8255   59.0230 C.2     1  ZINC001400108193    0.5900
      6 O6         -7.5139   -1.4523   58.8810 O.2     1  ZINC001400108193   -0.5300
      7 N7         -9.6640   -1.2126   58.3767 N.am    1  ZINC001400108193   -0.7300
      8 C8         -9.6345   -2.3873   57.5017 C.3     1  ZINC001400108193    0.1100
      9 C9        -10.6081   -2.1820   56.3394 C.3     1  ZINC001400108193    0.1300
     10 H10       -10.5690   -3.0458   55.6759 H       1  ZINC001400108193    0.1000
     11 C11       -12.0282   -2.0223   56.8859 C.3     1  ZINC001400108193   -0.1600
     12 N12       -10.2330   -0.9772   55.5951 N.am    1  ZINC001400108193   -0.7300
     13 C13       -10.5464   -0.8671   54.2890 C.2     1  ZINC001400108193    0.5200
     14 O14       -11.1404   -1.7648   53.7302 O.2     1  ZINC001400108193   -0.5100
     15 C15       -10.1590    0.3714   53.5228 C.3     1  ZINC001400108193    0.0700
     16 H16        -9.8424    0.0928   52.5177 H       1  ZINC001400108193    0.1000
     17 C17       -11.3609    1.3142   53.4360 C.3     1  ZINC001400108193   -0.1800
     18 O18        -9.0841    1.0307   54.1951 O.3     1  ZINC001400108193   -0.2800
     19 C19        -7.9426    1.2308   53.4853 C.ar    1  ZINC001400108193    0.1200
     20 C20        -7.2826    0.1531   52.9127 C.ar    1  ZINC001400108193   -0.2100
     21 C21        -6.1227    0.3593   52.1912 C.ar    1  ZINC001400108193   -0.0800
     22 C22        -5.6167    1.6376   52.0439 C.ar    1  ZINC001400108193   -0.1200
     23 C23        -4.3478    1.8588   51.2615 C.3     1  ZINC001400108193   -0.1100
     24 C24        -6.2755    2.7138   52.6091 C.ar    1  ZINC001400108193   -0.0800
     25 C25        -7.4358    2.5130   53.3315 C.ar    1  ZINC001400108193   -0.1400
     26 C26        -9.6397    1.1739   60.1502 C.2     1  ZINC001400108193    0.0200
     27 O27        -9.2505    2.1258   61.0039 O.3     1  ZINC001400108193   -0.1700
     28 H28        -6.7288    3.6857   61.6921 H       1  ZINC001400108193    0.0900
     29 H29        -7.8563    3.2875   63.0106 H       1  ZINC001400108193    0.0800
     30 H30        -6.4008    2.2954   62.7543 H       1  ZINC001400108193    0.0900
     31 H31        -6.4531    0.5264   60.7424 H       1  ZINC001400108193    0.1600
     32 H32       -10.4878   -0.7134   58.4909 H       1  ZINC001400108193    0.4000
     33 H33        -9.9273   -3.2706   58.0693 H       1  ZINC001400108193    0.0800
     34 H34        -8.6261   -2.5242   57.1111 H       1  ZINC001400108193    0.0900
     35 H35       -12.7218   -1.8762   56.0579 H       1  ZINC001400108193    0.0700
     36 H36       -12.3073   -2.9188   57.4397 H       1  ZINC001400108193    0.0700
     37 H37       -12.0673   -1.1585   57.5495 H       1  ZINC001400108193    0.0600
     38 H38        -9.7590   -0.2588   56.0423 H       1  ZINC001400108193    0.4000
     39 H39       -12.1808    0.8114   52.9232 H       1  ZINC001400108193    0.0800
     40 H40       -11.6774    1.5929   54.4411 H       1  ZINC001400108193    0.0800
     41 H41       -11.0807    2.2101   52.8819 H       1  ZINC001400108193    0.0800
     42 H42        -7.6750   -0.8460   53.0314 H       1  ZINC001400108193    0.1300
     43 H43        -5.6083   -0.4793   51.7457 H       1  ZINC001400108193    0.1300
     44 H44        -4.5926    2.0310   50.2134 H       1  ZINC001400108193    0.0700
     45 H45        -3.8224    2.7269   51.6594 H       1  ZINC001400108193    0.0700
     46 H46        -3.7108    0.9783   51.3459 H       1  ZINC001400108193    0.0700
     47 H47        -5.8805    3.7118   52.4891 H       1  ZINC001400108193    0.1300
     48 H48        -7.9480    3.3536   53.7759 H       1  ZINC001400108193    0.1300
     49 H49       -10.6291    1.0676   59.7306 H       1  ZINC001400108193    0.2100
@<TRIPOS>BOND
     1     1     2    1
     2     1    28    1
     3     1    29    1
     4     1    30    1
     5     2    27    1
     6     2     3    2
     7     3     4    1
     8     3    31    1
     9     4     5    1
    10     4    26    2
    11     5     6    2
    12     5     7   am
    13     7     8    1
    14     7    32    1
    15     8     9    1
    16     8    33    1
    17     8    34    1
    18     9    10    1
    19     9    11    1
    20     9    12    1
    21    11    35    1
    22    11    36    1
    23    11    37    1
    24    12    13   am
    25    12    38    1
    26    13    14    2
    27    13    15    1
    28    15    16    1
    29    15    17    1
    30    15    18    1
    31    17    39    1
    32    17    40    1
    33    17    41    1
    34    18    19    1
    35    19    25   ar
    36    19    20   ar
    37    20    21   ar
    38    20    42    1
    39    21    22   ar
    40    21    43    1
    41    22    23    1
    42    22    24   ar
    43    23    44    1
    44    23    45    1
    45    23    46    1
    46    24    25   ar
    47    24    47    1
    48    25    48    1
    49    26    27    1
    50    26    49    1
@<TRIPOS>SUBSTRUCTURE
     1 ZINC001400108193        1 TEMP              0 ****  ****    0 ROOT


##########                                Name:    ZINC000866717058
##########                DOCK_Rotatable_Bonds:                   7
##########                         Heavy_Atoms:                  25
##########                    Molecular_Weight:             380.388
##########                DOCK_Rotatable_Bonds:                   7
##########                       Formal_Charge:                0.04
##########                     HBond_Acceptors:                  10
##########                        HBond_Donors:                   1
##########                         Heavy_Atoms:                  25
##########                          Grid_Score:          -28.449280
##########                     Grid_vdw_energy:          -26.888565
##########                      Grid_es_energy:           -1.560716
##########           Internal_energy_repulsive:            7.411298

@<TRIPOS>MOLECULE
ZINC000866717058
 44 45 1 0 0
SMALL
USER_CHARGES


@<TRIPOS>ATOM
      1 C1        -10.0728   -1.6051   54.2179 C.3     1  ZINC000866717058   -0.1100
      2 C2         -9.3699   -0.3068   54.5197 C.ar    1  ZINC000866717058    0.2400
      3 N3         -8.6702    0.2900   53.5779 N.ar    1  ZINC000866717058   -0.5500
      4 C4         -8.0359    1.4318   53.7972 C.ar    1  ZINC000866717058    0.3500
      5 O5         -7.3292    2.0065   52.7940 O.3     1  ZINC000866717058   -0.2800
      6 C6         -5.9407    1.6798   52.7089 C.3     1  ZINC000866717058    0.0500
      7 H7         -5.6678    1.0326   53.5424 H       1  ZINC000866717058    0.1300
      8 C8         -5.6673    0.9549   51.3895 C.3     1  ZINC000866717058   -0.1700
      9 C9         -5.1103    2.9635   52.7670 C.3     1  ZINC000866717058    0.4600
     10 F10        -3.7974    2.6880   52.3703 F       1  ZINC000866717058   -0.1700
     11 F11        -5.6664    3.9179   51.9084 F       1  ZINC000866717058   -0.1700
     12 F12        -5.1079    3.4586   54.0756 F       1  ZINC000866717058   -0.1700
     13 C13        -8.0852    2.0499   55.0427 C.ar    1  ZINC000866717058   -0.1900
     14 C14        -8.8068    1.4602   56.0604 C.ar    1  ZINC000866717058    0.0000
     15 C15        -9.4715    0.2543   55.7935 C.ar    1  ZINC000866717058   -0.2300
     16 C16       -10.2574   -0.4170   56.8474 C.2     1  ZINC000866717058    0.5800
     17 O17        -9.7469   -1.2885   57.5244 O.2     1  ZINC000866717058   -0.5200
     18 N18       -11.5408   -0.0641   57.0591 N.am    1  ZINC000866717058   -0.7400
     19 C19       -12.3212   -0.7317   58.1038 C.3     1  ZINC000866717058    0.1400
     20 C20       -13.7932   -0.7786   57.6893 C.3     1  ZINC000866717058   -0.5700
     21 H21       -14.1292    0.2009   57.3489 H       1  ZINC000866717058    0.1500
     22 C22       -14.0221   -1.8505   56.5926 C.3     1  ZINC000866717058   -0.1100
     23 C23       -15.5276   -2.1692   56.5958 C.3     1  ZINC000866717058   -0.1200
     24 C24       -15.9829   -2.3905   58.0519 C.3     1  ZINC000866717058   -0.5900
     25 S25       -14.8387   -1.3818   59.0685 S.o2    1  ZINC000866717058    2.3700
     26 O26       -14.0676   -2.2385   59.8997 O.2     1  ZINC000866717058   -0.9200
     27 O27       -15.5511   -0.2924   59.6385 O.2     1  ZINC000866717058   -0.9300
     28 H28       -11.1141   -1.4045   53.9660 H       1  ZINC000866717058    0.0900
     29 H29        -9.5836   -2.0962   53.3767 H       1  ZINC000866717058    0.0700
     30 H30       -10.0292   -2.2539   55.0927 H       1  ZINC000866717058    0.1100
     31 H31        -4.6082    0.7058   51.3245 H       1  ZINC000866717058    0.0900
     32 H32        -6.2589    0.0404   51.3480 H       1  ZINC000866717058    0.0900
     33 H33        -5.9401    1.6022   50.5560 H       1  ZINC000866717058    0.0800
     34 H34        -7.5641    2.9807   55.2113 H       1  ZINC000866717058    0.1600
     35 H35        -8.8618    1.9179   57.0370 H       1  ZINC000866717058    0.1500
     36 H36       -11.9477    0.6319   56.5197 H       1  ZINC000866717058    0.4000
     37 H37       -11.9500   -1.7472   58.2417 H       1  ZINC000866717058    0.1000
     38 H38       -12.2245   -0.1795   59.0385 H       1  ZINC000866717058    0.1000
     39 H39       -13.7256   -1.4585   55.6197 H       1  ZINC000866717058    0.1100
     40 H40       -13.4500   -2.7490   56.8236 H       1  ZINC000866717058    0.0900
     41 H41       -16.0796   -1.3353   56.1620 H       1  ZINC000866717058    0.0900
     42 H42       -15.7125   -3.0713   56.0128 H       1  ZINC000866717058    0.1000
     43 H43       -17.0081   -2.0448   58.1847 H       1  ZINC000866717058    0.1400
     44 H44       -15.9005   -3.4443   58.3182 H       1  ZINC000866717058    0.1400
@<TRIPOS>BOND
     1     1     2    1
     2     1    28    1
     3     1    29    1
     4     1    30    1
     5     2    15   ar
     6     2     3   ar
     7     3     4   ar
     8     4     5    1
     9     4    13   ar
    10     5     6    1
    11     6     7    1
    12     6     8    1
    13     6     9    1
    14     8    31    1
    15     8    32    1
    16     8    33    1
    17     9    10    1
    18     9    11    1
    19     9    12    1
    20    13    14   ar
    21    13    34    1
    22    14    15   ar
    23    14    35    1
    24    15    16    1
    25    16    17    2
    26    16    18   am
    27    18    19    1
    28    18    36    1
    29    19    20    1
    30    19    37    1
    31    19    38    1
    32    20    21    1
    33    20    25    1
    34    20    22    1
    35    22    23    1
    36    22    39    1
    37    22    40    1
    38    23    24    1
    39    23    41    1
    40    23    42    1
    41    24    25    1
    42    24    43    1
    43    24    44    1
    44    25    26    2
    45    25    27    2
@<TRIPOS>SUBSTRUCTURE
     1 ZINC000866717058        1 TEMP              0 ****  ****    0 ROOT


##########                                Name:    ZINC000962855438
##########                DOCK_Rotatable_Bonds:                   7
##########                         Heavy_Atoms:                  27
##########                    Molecular_Weight:             370.448
##########                DOCK_Rotatable_Bonds:                   7
##########                       Formal_Charge:           0.0300005
##########                     HBond_Acceptors:                   6
##########                        HBond_Donors:                   2
##########                         Heavy_Atoms:                  27
##########                          Grid_Score:          -28.444933
##########                     Grid_vdw_energy:          -28.922699
##########                      Grid_es_energy:            0.477767
##########           Internal_energy_repulsive:           10.683037

@<TRIPOS>MOLECULE
ZINC000962855438
 53 56 1 0 0
SMALL
USER_CHARGES


@<TRIPOS>ATOM
      1 C1          3.5837    1.2173   58.4149 C.3     1  ZINC000962855438   -0.1100
      2 C2          2.3844    1.1925   59.3271 C.2     1  ZINC000962855438   -0.1700
      3 C3          1.1397    1.8648   58.9240 C.2     1  ZINC000962855438    0.5600
      4 O4          0.1717    1.8446   59.6600 O.2     1  ZINC000962855438   -0.5400
      5 N5          1.0718    2.5031   57.7389 N.am    1  ZINC000962855438   -0.7100
      6 C6         -0.1684    3.1712   57.3366 C.3     1  ZINC000962855438    0.1500
      7 H7         -1.0393    2.6154   57.6837 H       1  ZINC000962855438    0.1200
      8 C8         -0.2159    3.3762   55.8018 C.3     1  ZINC000962855438    0.1000
      9 N9         -1.1171    4.5258   55.6025 N.am    1  ZINC000962855438   -0.6100
     10 C10        -1.8172    4.7898   54.4815 C.2     1  ZINC000962855438    0.5800
     11 O11        -2.5335    5.7709   54.4290 O.2     1  ZINC000962855438   -0.5200
     12 C12        -1.7146    3.8882   53.3182 C.ar    1  ZINC000962855438   -0.1500
     13 C13        -0.4764    3.6614   52.7173 C.ar    1  ZINC000962855438   -0.0600
     14 C14        -0.3775    2.8203   51.6298 C.ar    1  ZINC000962855438   -0.1500
     15 C15        -1.5112    2.2004   51.1285 C.ar    1  ZINC000962855438   -0.0500
     16 C16        -2.7390    2.4195   51.7123 C.ar    1  ZINC000962855438   -0.1800
     17 C17        -2.8644    3.2513   52.8168 C.ar    1  ZINC000962855438    0.1600
     18 O18        -4.1519    3.3107   53.2467 O.3     1  ZINC000962855438   -0.2800
     19 C19        -5.0249    2.8753   52.1905 C.3     1  ZINC000962855438    0.0700
     20 H20        -5.3358    3.7187   51.5740 H       1  ZINC000962855438    0.0900
     21 C21        -6.2427    2.1450   52.7602 C.3     1  ZINC000962855438   -0.1500
     22 C22        -4.1273    1.9027   51.3864 C.3     1  ZINC000962855438   -0.1100
     23 C23        -1.1262    5.3360   56.8293 C.3     1  ZINC000962855438    0.0700
     24 C24        -0.2026    4.6354   57.8486 C.3     1  ZINC000962855438    0.0900
     25 H25        -0.6274    4.6845   58.8513 H       1  ZINC000962855438    0.0900
     26 O26         1.1046    5.2124   57.8265 O.3     1  ZINC000962855438   -0.5600
     27 C27         2.4513    0.5627   60.4966 C.2     1  ZINC000962855438   -0.0600
     28 C28         3.4995   -0.2174   61.2615 C.3     1  ZINC000962855438   -0.1000
     29 C29         2.3436   -0.9519   61.9587 C.3     1  ZINC000962855438   -0.1400
     30 C30         1.5156    0.3113   61.6599 C.3     1  ZINC000962855438   -0.1100
     31 H31         4.1957    2.0899   58.6433 H       1  ZINC000962855438    0.0700
     32 H32         4.1720    0.3118   58.5637 H       1  ZINC000962855438    0.0700
     33 H33         3.2508    1.2682   57.3783 H       1  ZINC000962855438    0.0700
     34 H34         1.8442    2.5201   57.1523 H       1  ZINC000962855438    0.4100
     35 H35         0.7789    3.6030   55.4184 H       1  ZINC000962855438    0.0800
     36 H36        -0.6187    2.4892   55.3129 H       1  ZINC000962855438    0.0900
     37 H37         0.4072    4.1464   53.1050 H       1  ZINC000962855438    0.1400
     38 H38         0.5830    2.6448   51.1682 H       1  ZINC000962855438    0.1400
     39 H39        -1.4315    1.5426   50.2757 H       1  ZINC000962855438    0.1300
     40 H40        -6.8085    2.8244   53.3976 H       1  ZINC000962855438    0.0700
     41 H41        -6.8762    1.8021   51.9421 H       1  ZINC000962855438    0.0800
     42 H42        -5.9111    1.2881   53.3465 H       1  ZINC000962855438    0.0700
     43 H43        -4.3272    1.9813   50.3178 H       1  ZINC000962855438    0.1000
     44 H44        -4.2576    0.8770   51.7313 H       1  ZINC000962855438    0.1000
     45 H45        -0.7511    6.3368   56.6153 H       1  ZINC000962855438    0.0800
     46 H46        -2.1393    5.3948   57.2272 H       1  ZINC000962855438    0.0800
     47 H47         1.7493    4.7471   58.3766 H       1  ZINC000962855438    0.3900
     48 H48         4.1086   -0.8641   60.6298 H       1  ZINC000962855438    0.0900
     49 H49         4.0946    0.3980   61.9361 H       1  ZINC000962855438    0.1000
     50 H50         2.0037   -1.8416   61.4286 H       1  ZINC000962855438    0.0900
     51 H51         2.5097   -1.1253   63.0220 H       1  ZINC000962855438    0.0800
     52 H52         1.5752    1.0668   62.4435 H       1  ZINC000962855438    0.1000
     53 H53         0.4913    0.0986   61.3539 H       1  ZINC000962855438    0.0800
@<TRIPOS>BOND
     1     1     2    1
     2     1    31    1
     3     1    32    1
     4     1    33    1
     5     2     3    1
     6     2    27    2
     7     3     4    2
     8     3     5   am
     9     5     6    1
    10     5    34    1
    11     6     7    1
    12     6    24    1
    13     6     8    1
    14     8     9    1
    15     8    35    1
    16     8    36    1
    17     9    10   am
    18     9    23    1
    19    10    11    2
    20    10    12    1
    21    12    17   ar
    22    12    13   ar
    23    13    14   ar
    24    13    37    1
    25    14    15   ar
    26    14    38    1
    27    15    16   ar
    28    15    39    1
    29    16    22    1
    30    16    17   ar
    31    17    18    1
    32    18    19    1
    33    19    20    1
    34    19    21    1
    35    19    22    1
    36    21    40    1
    37    21    41    1
    38    21    42    1
    39    22    43    1
    40    22    44    1
    41    23    24    1
    42    23    45    1
    43    23    46    1
    44    24    25    1
    45    24    26    1
    46    26    47    1
    47    27    30    1
    48    27    28    1
    49    28    29    1
    50    28    48    1
    51    28    49    1
    52    29    30    1
    53    29    50    1
    54    29    51    1
    55    30    52    1
    56    30    53    1
@<TRIPOS>SUBSTRUCTURE
     1 ZINC000962855438        1 TEMP              0 ****  ****    0 ROOT


##########                                Name:    ZINC000055987960
##########                DOCK_Rotatable_Bonds:                   6
##########                         Heavy_Atoms:                  28
##########                    Molecular_Weight:             404.868
##########                DOCK_Rotatable_Bonds:                   6
##########                       Formal_Charge:          0.00999941
##########                     HBond_Acceptors:                   7
##########                        HBond_Donors:                   1
##########                         Heavy_Atoms:                  28
##########                          Grid_Score:          -28.428089
##########                     Grid_vdw_energy:          -28.666830
##########                      Grid_es_energy:            0.238741
##########           Internal_energy_repulsive:           14.843595

@<TRIPOS>MOLECULE
ZINC000055987960
 50 52 1 0 0
SMALL
USER_CHARGES


@<TRIPOS>ATOM
      1 C1        -14.1132   -3.1182   57.3499 C.3     1  ZINC000055987960   -0.1800
      2 C2        -13.7513   -2.5055   58.7043 C.3     1  ZINC000055987960    0.0700
      3 H3        -14.1830   -3.1081   59.5034 H       1  ZINC000055987960    0.1200
      4 C4        -12.2266   -2.4675   58.8582 C.3     1  ZINC000055987960    0.0800
      5 N5        -11.6860   -1.5035   57.8867 N.am    1  ZINC000055987960   -0.6100
      6 C6        -10.6741   -1.8417   57.0633 C.2     1  ZINC000055987960    0.5700
      7 O7        -10.1941   -2.9576   57.1165 O.2     1  ZINC000055987960   -0.5300
      8 C8        -10.1484   -0.8576   56.0971 C.ar    1  ZINC000055987960   -0.1500
      9 C9        -10.2661   -1.0922   54.7245 C.ar    1  ZINC000055987960   -0.0700
     10 C10        -9.7751   -0.1720   53.8258 C.ar    1  ZINC000055987960   -0.1500
     11 C11        -9.1622    0.9905   54.2829 C.ar    1  ZINC000055987960    0.1700
     12 N12        -8.6664    1.9205   53.3701 N.am    1  ZINC000055987960   -0.6700
     13 C13        -7.3440    2.1755   53.3188 C.2     1  ZINC000055987960    0.5200
     14 O14        -6.5852    1.5960   54.0667 O.2     1  ZINC000055987960   -0.5000
     15 C15        -6.8080    3.1807   52.3322 C.3     1  ZINC000055987960   -0.1100
     16 C16        -5.3018    3.1782   52.3805 C.ar    1  ZINC000055987960   -0.1000
     17 C17        -4.5805    2.4460   51.4535 C.ar    1  ZINC000055987960    0.1300
     18 F18        -5.2264    1.7330   50.5050 F       1  ZINC000055987960   -0.1300
     19 C19        -3.1963    2.4449   51.4987 C.ar    1  ZINC000055987960   -0.1500
     20 C20        -2.5361    3.1745   52.4687 C.ar    1  ZINC000055987960   -0.0700
     21 C21        -3.2565    3.9060   53.3947 C.ar    1  ZINC000055987960   -0.1200
     22 C22        -4.6391    3.9124   53.3478 C.ar    1  ZINC000055987960    0.0000
     23 Cl23       -5.5428    4.8318   54.5105 Cl      1  ZINC000055987960   -0.0500
     24 C24        -9.0434    1.2271   55.6488 C.ar    1  ZINC000055987960   -0.1200
     25 C25        -9.5370    0.3135   56.5527 C.ar    1  ZINC000055987960   -0.0500
     26 C26       -12.2832   -0.1593   57.8406 C.3     1  ZINC000055987960    0.0600
     27 C27       -13.8052   -0.3098   57.7362 C.3     1  ZINC000055987960    0.0700
     28 H28       -14.0631   -0.7384   56.7678 H       1  ZINC000055987960    0.0700
     29 C29       -14.4655    1.0629   57.8799 C.3     1  ZINC000055987960   -0.1500
     30 O30       -14.2663   -1.1740   58.7789 O.3     1  ZINC000055987960   -0.3700
     31 H31       -13.6812   -2.5151   56.5512 H       1  ZINC000055987960    0.0600
     32 H32       -13.7187   -4.1328   57.2930 H       1  ZINC000055987960    0.0700
     33 H33       -15.1973   -3.1432   57.2404 H       1  ZINC000055987960    0.0700
     34 H34       -11.9674   -2.1542   59.8695 H       1  ZINC000055987960    0.0800
     35 H35       -11.8132   -3.4568   58.6626 H       1  ZINC000055987960    0.1000
     36 H36       -10.7414   -1.9945   54.3690 H       1  ZINC000055987960    0.1400
     37 H37        -9.8653   -0.3528   52.7649 H       1  ZINC000055987960    0.1300
     38 H38        -9.2732    2.3841   52.7720 H       1  ZINC000055987960    0.4200
     39 H39        -7.1398    2.9167   51.3280 H       1  ZINC000055987960    0.1200
     40 H40        -7.1781    4.1736   52.5877 H       1  ZINC000055987960    0.1200
     41 H41        -2.6329    1.8734   50.7759 H       1  ZINC000055987960    0.1500
     42 H42        -1.4567    3.1732   52.5039 H       1  ZINC000055987960    0.1500
     43 H43        -2.7396    4.4757   54.1527 H       1  ZINC000055987960    0.1400
     44 H44        -8.5668    2.1303   56.0003 H       1  ZINC000055987960    0.1500
     45 H45        -9.4445    0.4978   57.6129 H       1  ZINC000055987960    0.1300
     46 H46       -12.0296    0.3864   58.7495 H       1  ZINC000055987960    0.0800
     47 H47       -11.9071    0.3798   56.9712 H       1  ZINC000055987960    0.1100
     48 H48       -14.1106    1.7214   57.0871 H       1  ZINC000055987960    0.0700
     49 H49       -15.5476    0.9551   57.8056 H       1  ZINC000055987960    0.0700
     50 H50       -14.2085    1.4900   58.8493 H       1  ZINC000055987960    0.0700
@<TRIPOS>BOND
     1     1     2    1
     2     1    31    1
     3     1    32    1
     4     1    33    1
     5     2     3    1
     6     2    30    1
     7     2     4    1
     8     4     5    1
     9     4    34    1
    10     4    35    1
    11     5     6   am
    12     5    26    1
    13     6     7    2
    14     6     8    1
    15     8    25   ar
    16     8     9   ar
    17     9    10   ar
    18     9    36    1
    19    10    11   ar
    20    10    37    1
    21    11    12    1
    22    11    24   ar
    23    12    13   am
    24    12    38    1
    25    13    14    2
    26    13    15    1
    27    15    16    1
    28    15    39    1
    29    15    40    1
    30    16    22   ar
    31    16    17   ar
    32    17    18    1
    33    17    19   ar
    34    19    20   ar
    35    19    41    1
    36    20    21   ar
    37    20    42    1
    38    21    22   ar
    39    21    43    1
    40    22    23    1
    41    24    25   ar
    42    24    44    1
    43    25    45    1
    44    26    27    1
    45    26    46    1
    46    26    47    1
    47    27    28    1
    48    27    29    1
    49    27    30    1
    50    29    48    1
    51    29    49    1
    52    29    50    1
@<TRIPOS>SUBSTRUCTURE
     1 ZINC000055987960        1 TEMP              0 ****  ****    0 ROOT


##########                                Name:    ZINC000573650873
##########                DOCK_Rotatable_Bonds:                  10
##########                         Heavy_Atoms:                  28
##########                    Molecular_Weight:             418.843
##########                DOCK_Rotatable_Bonds:                  10
##########                       Formal_Charge:          -0.0500001
##########                     HBond_Acceptors:                   9
##########                        HBond_Donors:                   1
##########                         Heavy_Atoms:                  28
##########                          Grid_Score:          -28.403278
##########                     Grid_vdw_energy:          -29.514034
##########                      Grid_es_energy:            1.110756
##########           Internal_energy_repulsive:           14.397929

@<TRIPOS>MOLECULE
ZINC000573650873
 50 51 1 0 0
SMALL
USER_CHARGES


@<TRIPOS>ATOM
      1 C1        -15.1826   -4.0196   57.5542 C.3     1  ZINC000573650873   -0.1400
      2 C2        -14.8890   -2.5474   57.8499 C.3     1  ZINC000573650873    0.0100
      3 C3        -16.2042   -1.7688   57.9185 C.3     1  ZINC000573650873   -0.1400
      4 C4        -14.1577   -2.4322   59.1890 C.3     1  ZINC000573650873   -0.1500
      5 C5        -14.0245   -1.9777   56.7549 C.2     1  ZINC000573650873   -0.0100
      6 C6        -12.6733   -2.0130   56.6912 C.2     1  ZINC000573650873   -0.1800
      7 C7        -12.3704   -1.3443   55.4725 C.2     1  ZINC000573650873   -0.0300
      8 C8        -11.0236   -1.0960   54.9029 C.2     1  ZINC000573650873    0.6000
      9 O9        -10.6146   -1.7835   53.9885 O.2     1  ZINC000573650873   -0.5100
     10 N10       -10.2536   -0.1076   55.3995 N.am    1  ZINC000573650873   -0.5900
     11 C11        -8.9233    0.1377   54.8369 C.3     1  ZINC000573650873    0.1200
     12 C12        -9.0231    1.1922   53.7329 C.3     1  ZINC000573650873   -0.1000
     13 C13        -7.6505    1.4664   53.1746 C.ar    1  ZINC000573650873   -0.0800
     14 C14        -7.0901    2.7234   53.3050 C.ar    1  ZINC000573650873   -0.1000
     15 C15        -5.8312    2.9757   52.7932 C.ar    1  ZINC000573650873   -0.1100
     16 C16        -5.1320    1.9698   52.1502 C.ar    1  ZINC000573650873   -0.0400
     17 Cl17       -3.5505    2.2856   51.5076 Cl      1  ZINC000573650873   -0.0700
     18 C18        -5.6933    0.7120   52.0200 C.ar    1  ZINC000573650873   -0.1100
     19 C19        -6.9500    0.4595   52.5372 C.ar    1  ZINC000573650873   -0.1000
     20 C20       -10.7467    0.7214   56.5022 C.3     1  ZINC000573650873    0.0700
     21 C21       -10.3303    0.0970   57.8355 C.3     1  ZINC000573650873    0.0600
     22 H22       -11.2180   -0.2320   58.3756 H       1  ZINC000573650873    0.1400
     23 O23        -9.4786   -1.0242   57.5910 O.3     1  ZINC000573650873   -0.5200
     24 C24        -9.5796    1.1349   58.6723 C.3     1  ZINC000573650873    0.4300
     25 F25        -8.3538    1.4260   58.0643 F       1  ZINC000573650873   -0.1700
     26 F26       -10.3445    2.3028   58.7623 F       1  ZINC000573650873   -0.1700
     27 F27        -9.3544    0.6250   59.9555 F       1  ZINC000573650873   -0.1800
     28 N28       -13.5211   -0.9927   54.9548 N.2     1  ZINC000573650873   -0.3400
     29 O29       -14.4448   -1.3426   55.6521 O.3     1  ZINC000573650873    0.1300
     30 H30       -15.7036   -4.1016   56.6002 H       1  ZINC000573650873    0.0600
     31 H31       -14.2455   -4.5742   57.5054 H       1  ZINC000573650873    0.0600
     32 H32       -15.8077   -4.4316   58.3463 H       1  ZINC000573650873    0.0700
     33 H33       -16.8295   -2.1809   58.7105 H       1  ZINC000573650873    0.0700
     34 H34       -15.9950   -0.7201   58.1292 H       1  ZINC000573650873    0.0600
     35 H35       -16.7252   -1.8509   56.9646 H       1  ZINC000573650873    0.0600
     36 H36       -13.2207   -2.9868   59.1401 H       1  ZINC000573650873    0.0600
     37 H37       -13.9485   -1.3835   59.3997 H       1  ZINC000573650873    0.0600
     38 H38       -14.7830   -2.8443   59.9809 H       1  ZINC000573650873    0.0700
     39 H39       -11.9848   -2.4477   57.4007 H       1  ZINC000573650873    0.1800
     40 H40        -8.2571    0.4954   55.6219 H       1  ZINC000573650873    0.0900
     41 H41        -8.5288   -0.7889   54.4198 H       1  ZINC000573650873    0.1000
     42 H42        -9.6722    0.8254   52.9377 H       1  ZINC000573650873    0.0800
     43 H43        -9.4381    2.1119   54.1453 H       1  ZINC000573650873    0.0800
     44 H44        -7.6362    3.5087   53.8066 H       1  ZINC000573650873    0.1300
     45 H45        -5.3937    3.9578   52.8947 H       1  ZINC000573650873    0.1300
     46 H46        -5.1481   -0.0735   51.5179 H       1  ZINC000573650873    0.1300
     47 H47        -7.3882   -0.5224   52.4359 H       1  ZINC000573650873    0.1300
     48 H48       -10.3232    1.7224   56.4217 H       1  ZINC000573650873    0.1000
     49 H49       -11.8340    0.7818   56.4532 H       1  ZINC000573650873    0.1200
     50 H50        -9.9236   -1.7713   57.1681 H       1  ZINC000573650873    0.3900
@<TRIPOS>BOND
     1     1     2    1
     2     1    30    1
     3     1    31    1
     4     1    32    1
     5     2     3    1
     6     2     4    1
     7     2     5    1
     8     3    33    1
     9     3    34    1
    10     3    35    1
    11     4    36    1
    12     4    37    1
    13     4    38    1
    14     5    29    1
    15     5     6    2
    16     6     7    1
    17     6    39    1
    18     7     8    1
    19     7    28    2
    20     8     9    2
    21     8    10   am
    22    10    11    1
    23    10    20    1
    24    11    12    1
    25    11    40    1
    26    11    41    1
    27    12    13    1
    28    12    42    1
    29    12    43    1
    30    13    19   ar
    31    13    14   ar
    32    14    15   ar
    33    14    44    1
    34    15    16   ar
    35    15    45    1
    36    16    17    1
    37    16    18   ar
    38    18    19   ar
    39    18    46    1
    40    19    47    1
    41    20    21    1
    42    20    48    1
    43    20    49    1
    44    21    22    1
    45    21    23    1
    46    21    24    1
    47    23    50    1
    48    24    25    1
    49    24    26    1
    50    24    27    1
    51    28    29    1
@<TRIPOS>SUBSTRUCTURE
     1 ZINC000573650873        1 TEMP              0 ****  ****    0 ROOT


##########                                Name:    ZINC000417533280
##########                DOCK_Rotatable_Bonds:                   9
##########                         Heavy_Atoms:                  26
##########                    Molecular_Weight:             367.439
##########                DOCK_Rotatable_Bonds:                   9
##########                       Formal_Charge:         -0.00999999
##########                     HBond_Acceptors:                   7
##########                        HBond_Donors:                   2
##########                         Heavy_Atoms:                  26
##########                          Grid_Score:          -28.378277
##########                     Grid_vdw_energy:          -29.042690
##########                      Grid_es_energy:            0.664414
##########           Internal_energy_repulsive:           19.062332

@<TRIPOS>MOLECULE
ZINC000417533280
 53 54 1 0 0
SMALL
USER_CHARGES


@<TRIPOS>ATOM
      1 C1        -16.0742   -2.2141   55.7061 C.3     1  ZINC000417533280   -0.1600
      2 C2        -16.3770   -2.1859   57.2055 C.3     1  ZINC000417533280   -0.1200
      3 C3        -15.5494   -3.2607   57.9133 C.3     1  ZINC000417533280   -0.1200
      4 C4        -14.3025   -2.6217   58.5280 C.3     1  ZINC000417533280   -0.1300
      5 C5        -13.0571   -3.1284   57.7978 C.3     1  ZINC000417533280    0.1200
      6 N6        -12.5949   -2.1074   56.8544 N.am    1  ZINC000417533280   -0.7300
      7 C7        -11.3849   -2.2257   56.2728 C.2     1  ZINC000417533280    0.5200
      8 O8        -10.6793   -3.1782   56.5294 O.2     1  ZINC000417533280   -0.5400
      9 C9        -10.9086   -1.1743   55.3037 C.3     1  ZINC000417533280   -0.1100
     10 C10       -10.3852    0.0357   56.0808 C.3     1  ZINC000417533280   -0.1300
     11 C11        -9.9341    1.1160   55.0927 C.3     1  ZINC000417533280    0.1300
     12 N12        -8.9601    0.5289   54.1625 N.am    1  ZINC000417533280   -0.6200
     13 C13        -7.7514    1.0980   53.9843 C.2     1  ZINC000417533280    0.7100
     14 O14        -6.9542    0.6025   53.2115 O.2     1  ZINC000417533280   -0.5600
     15 N15        -7.4266    2.2164   54.6626 N.am    1  ZINC000417533280   -0.6800
     16 C16        -6.1706    2.8078   54.4774 C.ar    1  ZINC000417533280    0.1900
     17 C17        -5.7081    3.0694   53.1949 C.ar    1  ZINC000417533280   -0.1100
     18 C18        -4.4691    3.6534   53.0131 C.ar    1  ZINC000417533280   -0.1100
     19 C19        -3.6881    3.9779   54.1084 C.ar    1  ZINC000417533280    0.0500
     20 F20        -2.4771    4.5492   53.9282 F       1  ZINC000417533280   -0.1300
     21 C21        -4.1475    3.7178   55.3911 C.ar    1  ZINC000417533280    0.0900
     22 F22        -3.3839    4.0353   56.4594 F       1  ZINC000417533280   -0.1200
     23 C23        -5.3893    3.1384   55.5765 C.ar    1  ZINC000417533280   -0.1300
     24 C24        -5.8894    2.8559   56.9698 C.3     1  ZINC000417533280   -0.1200
     25 C25        -9.3285   -0.6906   53.4305 C.3     1  ZINC000417533280    0.1100
     26 C26        -9.7864   -1.7506   54.4373 C.3     1  ZINC000417533280   -0.1200
     27 H27       -15.0136   -2.0202   55.5459 H       1  ZINC000417533280    0.0500
     28 H28       -16.3294   -3.1938   55.3022 H       1  ZINC000417533280    0.0500
     29 H29       -16.6638   -1.4485   55.2019 H       1  ZINC000417533280    0.0500
     30 H30       -16.1218   -1.2062   57.6094 H       1  ZINC000417533280    0.0600
     31 H31       -17.4376   -2.3798   57.3657 H       1  ZINC000417533280    0.0600
     32 H32       -16.1475   -3.7203   58.7000 H       1  ZINC000417533280    0.0700
     33 H33       -15.2500   -4.0217   57.1927 H       1  ZINC000417533280    0.0700
     34 H34       -14.3645   -1.5377   58.4314 H       1  ZINC000417533280    0.0700
     35 H35       -14.2395   -2.8895   59.5827 H       1  ZINC000417533280    0.0700
     36 H36       -12.2701   -3.3362   58.5228 H       1  ZINC000417533280    0.0700
     37 H37       -13.3009   -4.0414   57.2545 H       1  ZINC000417533280    0.0700
     38 H38       -13.1597   -1.3462   56.6483 H       1  ZINC000417533280    0.4000
     39 H39       -11.7373   -0.8658   54.6665 H       1  ZINC000417533280    0.1000
     40 H40       -11.1783    0.4314   56.7152 H       1  ZINC000417533280    0.0800
     41 H41        -9.5405   -0.2669   56.6997 H       1  ZINC000417533280    0.0800
     42 H42       -10.7956    1.4842   54.5355 H       1  ZINC000417533280    0.0700
     43 H43        -9.4699    1.9383   55.6370 H       1  ZINC000417533280    0.1000
     44 H44        -8.0627    2.6117   55.2790 H       1  ZINC000417533280    0.4100
     45 H45        -6.3166    2.8162   52.3394 H       1  ZINC000417533280    0.1700
     46 H46        -4.1096    3.8564   52.0151 H       1  ZINC000417533280    0.1500
     47 H47        -6.4399    3.7205   57.3405 H       1  ZINC000417533280    0.0800
     48 H48        -6.5474    1.9870   56.9505 H       1  ZINC000417533280    0.0700
     49 H49        -5.0425    2.6557   57.6261 H       1  ZINC000417533280    0.0800
     50 H50       -10.1405   -0.4698   52.7377 H       1  ZINC000417533280    0.0800
     51 H51        -8.4645   -1.0603   52.8781 H       1  ZINC000417533280    0.0800
     52 H52        -8.9472   -2.0364   55.0716 H       1  ZINC000417533280    0.0800
     53 H53       -10.1532   -2.6263   53.9020 H       1  ZINC000417533280    0.0900
@<TRIPOS>BOND
     1     1     2    1
     2     1    27    1
     3     1    28    1
     4     1    29    1
     5     2     3    1
     6     2    30    1
     7     2    31    1
     8     3     4    1
     9     3    32    1
    10     3    33    1
    11     4     5    1
    12     4    34    1
    13     4    35    1
    14     5     6    1
    15     5    36    1
    16     5    37    1
    17     6     7   am
    18     6    38    1
    19     7     8    2
    20     7     9    1
    21     9    26    1
    22     9    10    1
    23     9    39    1
    24    10    11    1
    25    10    40    1
    26    10    41    1
    27    11    12    1
    28    11    42    1
    29    11    43    1
    30    12    13   am
    31    12    25    1
    32    13    14    2
    33    13    15   am
    34    15    16    1
    35    15    44    1
    36    16    23   ar
    37    16    17   ar
    38    17    18   ar
    39    17    45    1
    40    18    19   ar
    41    18    46    1
    42    19    20    1
    43    19    21   ar
    44    21    22    1
    45    21    23   ar
    46    23    24    1
    47    24    47    1
    48    24    48    1
    49    24    49    1
    50    25    26    1
    51    25    50    1
    52    25    51    1
    53    26    52    1
    54    26    53    1
@<TRIPOS>SUBSTRUCTURE
     1 ZINC000417533280        1 TEMP              0 ****  ****    0 ROOT


##########                                Name:    ZINC000123469372
##########                DOCK_Rotatable_Bonds:                   7
##########                         Heavy_Atoms:                  25
##########                    Molecular_Weight:             341.382
##########                DOCK_Rotatable_Bonds:                   7
##########                       Formal_Charge:          -0.0300001
##########                     HBond_Acceptors:                   5
##########                        HBond_Donors:                   2
##########                         Heavy_Atoms:                  25
##########                          Grid_Score:          -28.376253
##########                     Grid_vdw_energy:          -29.119377
##########                      Grid_es_energy:            0.743124
##########           Internal_energy_repulsive:            8.938536

@<TRIPOS>MOLECULE
ZINC000123469372
 45 47 1 0 0
SMALL
USER_CHARGES


@<TRIPOS>ATOM
      1 C1        -11.0044   -1.3038   53.1286 C.3     1  ZINC000123469372   -0.1700
      2 C2        -10.2047   -0.7307   54.3005 C.3     1  ZINC000123469372    0.1500
      3 H3        -10.6820    0.1834   54.6536 H       1  ZINC000123469372    0.0900
      4 C4        -10.1601   -1.7545   55.4366 C.3     1  ZINC000123469372   -0.1600
      5 C5        -10.3207   -1.0355   56.7775 C.3     1  ZINC000123469372    0.1500
      6 H6        -10.2695    0.0419   56.6204 H       1  ZINC000123469372    0.1100
      7 O7         -9.2735   -1.4382   57.6625 O.3     1  ZINC000123469372   -0.5500
      8 C8        -11.6543   -1.3921   57.3821 C.ar    1  ZINC000123469372   -0.1200
      9 C9        -11.7091   -2.0361   58.6040 C.ar    1  ZINC000123469372   -0.1100
     10 C10       -12.9324   -2.3632   59.1586 C.ar    1  ZINC000123469372   -0.1200
     11 C11       -14.1008   -2.0460   58.4915 C.ar    1  ZINC000123469372   -0.1200
     12 C12       -14.0460   -1.4012   57.2700 C.ar    1  ZINC000123469372   -0.1200
     13 C13       -12.8228   -1.0702   56.7173 C.ar    1  ZINC000123469372   -0.1100
     14 N14        -8.8402   -0.4303   53.8599 N.am    1  ZINC000123469372   -0.7100
     15 C15        -8.4846    0.8407   53.5872 C.2     1  ZINC000123469372    0.5700
     16 O16        -9.2975    1.7390   53.7054 O.2     1  ZINC000123469372   -0.5400
     17 C17        -7.1220    1.1409   53.1491 C.2     1  ZINC000123469372   -0.2200
     18 C18        -6.4900    2.2515   53.6025 C.2     1  ZINC000123469372    0.0000
     19 C19        -5.1277    2.5156   53.1138 C.ar    1  ZINC000123469372   -0.1200
     20 C20        -4.2869    3.4228   53.7570 C.ar    1  ZINC000123469372   -0.0900
     21 C21        -3.0150    3.6400   53.2625 C.ar    1  ZINC000123469372    0.0700
     22 F22        -2.1941    4.5173   53.8803 F       1  ZINC000123469372   -0.1400
     23 C23        -2.5770    2.9609   52.1351 C.ar    1  ZINC000123469372   -0.1100
     24 C24        -3.4042    2.0595   51.4905 C.ar    1  ZINC000123469372   -0.1200
     25 C25        -4.6802    1.8293   51.9714 C.ar    1  ZINC000123469372    0.1300
     26 O26        -5.5152    0.9520   51.3611 O.3     1  ZINC000123469372   -0.3000
     27 C27        -6.4120    0.2141   52.1968 C.3     1  ZINC000123469372    0.1100
     28 H28       -12.0196   -1.5273   53.4564 H       1  ZINC000123469372    0.0700
     29 H29       -11.0361   -0.5744   52.3193 H       1  ZINC000123469372    0.0600
     30 H30       -10.5271   -2.2178   52.7755 H       1  ZINC000123469372    0.0600
     31 H31       -10.9698   -2.4730   55.3102 H       1  ZINC000123469372    0.0900
     32 H32        -9.2039   -2.2775   55.4170 H       1  ZINC000123469372    0.0800
     33 H33        -8.5023   -0.8549   57.6504 H       1  ZINC000123469372    0.3700
     34 H34       -10.7963   -2.2840   59.1252 H       1  ZINC000123469372    0.1200
     35 H35       -12.9752   -2.8671   60.1130 H       1  ZINC000123469372    0.1200
     36 H36       -15.0565   -2.3023   58.9244 H       1  ZINC000123469372    0.1200
     37 H37       -14.9588   -1.1536   56.7486 H       1  ZINC000123469372    0.1200
     38 H38       -12.7800   -0.5664   55.7631 H       1  ZINC000123469372    0.1200
     39 H39        -8.1927   -1.1462   53.7644 H       1  ZINC000123469372    0.4000
     40 H40        -6.9714    2.9211   54.2998 H       1  ZINC000123469372    0.1500
     41 H41        -4.6273    3.9521   54.6347 H       1  ZINC000123469372    0.1500
     42 H42        -1.5810    3.1381   51.7570 H       1  ZINC000123469372    0.1500
     43 H43        -3.0544    1.5362   50.6129 H       1  ZINC000123469372    0.1500
     44 H44        -5.8494   -0.5301   52.7604 H       1  ZINC000123469372    0.0800
     45 H45        -7.1503   -0.2919   51.5747 H       1  ZINC000123469372    0.1100
@<TRIPOS>BOND
     1     1     2    1
     2     1    28    1
     3     1    29    1
     4     1    30    1
     5     2     3    1
     6     2     4    1
     7     2    14    1
     8     4     5    1
     9     4    31    1
    10     4    32    1
    11     5     6    1
    12     5     7    1
    13     5     8    1
    14     7    33    1
    15     8    13   ar
    16     8     9   ar
    17     9    10   ar
    18     9    34    1
    19    10    11   ar
    20    10    35    1
    21    11    12   ar
    22    11    36    1
    23    12    13   ar
    24    12    37    1
    25    13    38    1
    26    14    15   am
    27    14    39    1
    28    15    16    2
    29    15    17    1
    30    17    27    1
    31    17    18    2
    32    18    19    1
    33    18    40    1
    34    19    25   ar
    35    19    20   ar
    36    20    21   ar
    37    20    41    1
    38    21    22    1
    39    21    23   ar
    40    23    24   ar
    41    23    42    1
    42    24    25   ar
    43    24    43    1
    44    25    26    1
    45    26    27    1
    46    27    44    1
    47    27    45    1
@<TRIPOS>SUBSTRUCTURE
     1 ZINC000123469372        1 TEMP              0 ****  ****    0 ROOT


##########                                Name:    ZINC000342525234
##########                DOCK_Rotatable_Bonds:                   6
##########                         Heavy_Atoms:                  25
##########                    Molecular_Weight:             333.349
##########                DOCK_Rotatable_Bonds:                   6
##########                       Formal_Charge:           0.0500003
##########                     HBond_Acceptors:                   7
##########                        HBond_Donors:                   2
##########                         Heavy_Atoms:                  25
##########                          Grid_Score:          -28.367674
##########                     Grid_vdw_energy:          -28.319603
##########                      Grid_es_energy:           -0.048071
##########           Internal_energy_repulsive:            3.582732

@<TRIPOS>MOLECULE
ZINC000342525234
 40 43 1 0 0
SMALL
USER_CHARGES


@<TRIPOS>ATOM
      1 O1         -4.7734    1.5224   50.7200 O.2     1  <0>        -0.5100
      2 C2         -4.4288    2.1148   51.7232 C.2     1  <0>         0.6000
      3 N3         -5.3370    2.4197   52.6712 N.am    1  <0>        -0.7100
      4 C4         -6.7408    2.0422   52.4892 C.3     1  <0>         0.1200
      5 C5         -7.4063    1.8782   53.8571 C.3     1  <0>        -0.0900
      6 C6         -8.8444    1.4683   53.6701 C.ar    1  <0>        -0.0400
      7 C7         -9.1357    0.1596   53.4646 C.ar    1  <0>        -0.1000
      8 C8        -10.4792   -0.2361   53.2882 C.ar    1  <0>         0.1100
      9 N9        -11.0873   -1.3887   53.0747 N.2     1  <0>        -0.3100
     10 N10       -12.4655   -1.1650   52.9794 N.pl3   1  <0>        -0.4200
     11 C11       -12.7287    0.1396   53.1341 C.2     1  <0>         0.0900
     12 C12       -11.5278    0.7948   53.3335 C.ar    1  <0>        -0.2100
     13 C13       -11.1514    2.1374   53.5513 C.ar    1  <0>        -0.0400
     14 C14        -9.8410    2.4458   53.7187 C.ar    1  <0>        -0.1500
     15 C15        -3.0074    2.4971   51.9075 C.2     1  <0>        -0.0200
     16 N16        -2.5057    3.2093   52.8867 N.2     1  <0>        -0.3200
     17 O17        -1.3120    3.3572   52.7673 O.3     1  <0>         0.1400
     18 C18        -0.8423    2.7483   51.6642 C.2     1  <0>         0.0100
     19 C19         0.5611    2.7169   51.1988 C.ar    1  <0>         0.0200
     20 C20         0.9096    2.0694   50.0079 C.ar    1  <0>        -0.1400
     21 C21         2.2309    2.0649   49.6111 C.ar    1  <0>         0.1100
     22 N22         3.1585    2.6590   50.3371 N.ar    1  <0>        -0.4800
     23 C23         2.8731    3.2802   51.4655 C.ar    1  <0>         0.1100
     24 C24         1.5768    3.3386   51.9340 C.ar    1  <0>        -0.1500
     25 C25        -1.9183    2.1592   51.0617 C.2     1  <0>        -0.1500
     26 H26        -5.0612    2.8892   53.4739 H       1  <0>         0.4100
     27 H27        -7.2560    2.8198   51.9253 H       1  <0>         0.0800
     28 H28        -6.7958    1.1005   51.9431 H       1  <0>         0.0800
     29 H29        -6.8812    1.1118   54.4270 H       1  <0>         0.0900
     30 H30        -7.3654    2.8244   54.3968 H       1  <0>         0.0800
     31 H31        -8.3447   -0.5751   53.4359 H       1  <0>         0.1300
     32 H32       -13.1317   -1.8527   52.8242 H       1  <0>         0.4500
     33 H33       -13.7061    0.5982   53.1073 H       1  <0>         0.1900
     34 H34       -11.9017    2.9134   53.5891 H       1  <0>         0.1300
     35 H35        -9.5601    3.4752   53.8854 H       1  <0>         0.1200
     36 H36         0.1556    1.5805   49.4089 H       1  <0>         0.1400
     37 H37         2.5098    1.5680   48.6936 H       1  <0>         0.1700
     38 H38         3.6646    3.7531   52.0279 H       1  <0>         0.1700
     39 H39         1.3505    3.8490   52.8585 H       1  <0>         0.1500
     40 H40        -1.9369    1.5779   50.1516 H       1  <0>         0.1900
@<TRIPOS>BOND
     1     1     2    2
     2     2     3   am
     3     2    15    1
     4     3     4    1
     5     3    26    1
     6     4     5    1
     7     4    27    1
     8     4    28    1
     9     5     6    1
    10     5    29    1
    11     5    30    1
    12     6    14   ar
    13     6     7   ar
    14     7     8   ar
    15     7    31    1
    16     8    12   ar
    17     8     9    2
    18     9    10    1
    19    10    11    1
    20    10    32    1
    21    11    12    2
    22    11    33    1
    23    12    13   ar
    24    13    14   ar
    25    13    34    1
    26    14    35    1
    27    15    25    1
    28    15    16    2
    29    16    17    1
    30    17    18    1
    31    18    19    1
    32    18    25    2
    33    19    24   ar
    34    19    20   ar
    35    20    21   ar
    36    20    36    1
    37    21    22   ar
    38    21    37    1
    39    22    23   ar
    40    23    24   ar
    41    23    38    1
    42    24    39    1
    43    25    40    1
@<TRIPOS>SUBSTRUCTURE
     1 <0>         1 TEMP              0 ****  ****    0 ROOT


##########                                Name:    ZINC000753658424
##########                DOCK_Rotatable_Bonds:                   8
##########                         Heavy_Atoms:                  24
##########                    Molecular_Weight:             332.399
##########                DOCK_Rotatable_Bonds:                   8
##########                       Formal_Charge:        -9.16421e-07
##########                     HBond_Acceptors:                   6
##########                        HBond_Donors:                   3
##########                         Heavy_Atoms:                  24
##########                          Grid_Score:          -28.362453
##########                     Grid_vdw_energy:          -26.889694
##########                      Grid_es_energy:           -1.472760
##########           Internal_energy_repulsive:           17.158182

@<TRIPOS>MOLECULE
ZINC000753658424
 48 49 1 0 0
SMALL
USER_CHARGES


@<TRIPOS>ATOM
      1 C1        -15.4386   -4.0378   57.9284 C.3     1  ZINC000753658424   -0.2000
      2 C2        -15.1636   -2.5583   57.8474 C.2     1  ZINC000753658424    0.4400
      3 O3        -15.6728   -1.8019   58.6478 O.2     1  ZINC000753658424   -0.4500
      4 C4        -14.2807   -2.0328   56.8015 C.2     1  ZINC000753658424   -0.2500
      5 C5        -14.6697   -1.5284   55.5703 C.2     1  ZINC000753658424    0.1000
      6 C6        -16.0866   -1.4231   55.0679 C.3     1  ZINC000753658424   -0.1000
      7 N7        -13.5700   -1.1495   54.9028 N.pl3   1  ZINC000753658424   -0.5300
      8 C8        -12.4580   -1.3977   55.6785 C.2     1  ZINC000753658424   -0.0600
      9 C9        -11.0667   -1.1207   55.2990 C.2     1  ZINC000753658424    0.5900
     10 O10       -10.3604   -2.0181   54.8794 O.2     1  ZINC000753658424   -0.5200
     11 N11       -10.5722    0.1277   55.4155 N.am    1  ZINC000753658424   -0.7300
     12 C12        -9.1837    0.4037   55.0385 C.3     1  ZINC000753658424    0.0900
     13 C13        -9.0809    1.8219   54.4738 C.3     1  ZINC000753658424    0.1900
     14 H14        -9.2404    2.5443   55.2743 H       1  ZINC000753658424    0.1300
     15 O15       -10.0737    2.0049   53.4623 O.3     1  ZINC000753658424   -0.5500
     16 C16        -7.7123    2.0272   53.8773 C.2     1  ZINC000753658424   -0.0600
     17 C17        -6.6660    2.6086   54.4909 C.2     1  ZINC000753658424   -0.1800
     18 C18        -5.5911    2.5912   53.5724 C.2     1  ZINC000753658424   -0.2100
     19 C19        -6.0450    2.0001   52.4526 C.2     1  ZINC000753658424    0.0000
     20 C20        -5.2464    1.7590   51.1975 C.3     1  ZINC000753658424   -0.0800
     21 O21        -7.3287    1.6553   52.6451 O.3     1  ZINC000753658424   -0.1700
     22 C22       -12.8694   -1.9383   56.8595 C.2     1  ZINC000753658424   -0.0100
     23 C23       -11.9887   -2.3637   58.0059 C.3     1  ZINC000753658424   -0.0500
     24 C24       -11.0907   -3.5186   57.5580 C.3     1  ZINC000753658424   -0.1500
     25 C25       -11.1203   -1.1838   58.4471 C.3     1  ZINC000753658424   -0.1500
     26 H26       -16.0464   -4.2467   58.8088 H       1  ZINC000753658424    0.0800
     27 H27       -15.9729   -4.3575   57.0338 H       1  ZINC000753658424    0.1000
     28 H28       -14.4954   -4.5791   58.0012 H       1  ZINC000753658424    0.0900
     29 H29       -16.4740   -0.4265   55.2793 H       1  ZINC000753658424    0.0900
     30 H30       -16.1048   -1.5995   53.9924 H       1  ZINC000753658424    0.0800
     31 H31       -16.7059   -2.1675   55.5686 H       1  ZINC000753658424    0.0900
     32 H32       -13.5589   -0.7617   54.0137 H       1  ZINC000753658424    0.4200
     33 H33       -11.1357    0.8434   55.7489 H       1  ZINC000753658424    0.4000
     34 H34        -8.5443    0.3152   55.9168 H       1  ZINC000753658424    0.0900
     35 H35        -8.8632   -0.3127   54.2821 H       1  ZINC000753658424    0.0800
     36 H36       -10.0115    1.3747   52.7315 H       1  ZINC000753658424    0.3900
     37 H37        -6.6501    3.0120   55.4926 H       1  ZINC000753658424    0.1500
     38 H38        -4.5967    2.9784   53.7381 H       1  ZINC000753658424    0.1500
     39 H39        -4.7590    0.7859   51.2584 H       1  ZINC000753658424    0.0800
     40 H40        -5.9115    1.7788   50.3342 H       1  ZINC000753658424    0.0800
     41 H41        -4.4911    2.5377   51.0924 H       1  ZINC000753658424    0.0900
     42 H42       -12.6102   -2.6893   58.8401 H       1  ZINC000753658424    0.1100
     43 H43       -10.3867   -3.1609   56.8066 H       1  ZINC000753658424    0.0500
     44 H44       -10.5410   -3.9053   58.4160 H       1  ZINC000753658424    0.0600
     45 H45       -11.7047   -4.3122   57.1321 H       1  ZINC000753658424    0.0600
     46 H46       -11.7568   -0.3913   58.8405 H       1  ZINC000753658424    0.0500
     47 H47       -10.4278   -1.5122   59.2222 H       1  ZINC000753658424    0.0600
     48 H48       -10.5576   -0.8075   57.5928 H       1  ZINC000753658424    0.0600
@<TRIPOS>BOND
     1     1     2    1
     2     1    26    1
     3     1    27    1
     4     1    28    1
     5     2     3    2
     6     2     4    1
     7     4    22    1
     8     4     5    2
     9     5     6    1
    10     5     7    1
    11     6    29    1
    12     6    30    1
    13     6    31    1
    14     7     8    1
    15     7    32    1
    16     8     9    1
    17     8    22    2
    18     9    10    2
    19     9    11   am
    20    11    12    1
    21    11    33    1
    22    12    13    1
    23    12    34    1
    24    12    35    1
    25    13    14    1
    26    13    15    1
    27    13    16    1
    28    15    36    1
    29    16    21    1
    30    16    17    2
    31    17    18    1
    32    17    37    1
    33    18    19    2
    34    18    38    1
    35    19    20    1
    36    19    21    1
    37    20    39    1
    38    20    40    1
    39    20    41    1
    40    22    23    1
    41    23    24    1
    42    23    25    1
    43    23    42    1
    44    24    43    1
    45    24    44    1
    46    24    45    1
    47    25    46    1
    48    25    47    1
    49    25    48    1
@<TRIPOS>SUBSTRUCTURE
     1 ZINC000753658424        1 TEMP              0 ****  ****    0 ROOT


##########                                Name:    ZINC000426037318
##########                DOCK_Rotatable_Bonds:                   7
##########                         Heavy_Atoms:                  28
##########                    Molecular_Weight:             421.904
##########                DOCK_Rotatable_Bonds:                   7
##########                       Formal_Charge:         -0.00999981
##########                     HBond_Acceptors:                   9
##########                        HBond_Donors:                   1
##########                         Heavy_Atoms:                  28
##########                          Grid_Score:          -28.358404
##########                     Grid_vdw_energy:          -28.126528
##########                      Grid_es_energy:           -0.231876
##########           Internal_energy_repulsive:           23.469791

@<TRIPOS>MOLECULE
ZINC000426037318
 48 50 1 0 0
SMALL
USER_CHARGES


@<TRIPOS>ATOM
      1 C1        -14.8124   -1.9678   59.5592 C.3     1  ZINC000426037318    0.0300
      2 O2        -15.7273   -2.0157   58.4626 O.3     1  ZINC000426037318   -0.3800
      3 C3        -15.2875   -2.8302   57.3739 C.3     1  ZINC000426037318    0.1300
      4 C4        -14.4179   -2.0126   56.4540 C.ar    1  ZINC000426037318    0.3900
      5 N5        -14.9485   -1.5083   55.3545 N.ar    1  ZINC000426037318   -0.5700
      6 C6        -14.2297   -0.7835   54.5140 C.ar    1  ZINC000426037318    0.4400
      7 O7        -14.7905   -0.2744   53.3924 O.3     1  ZINC000426037318   -0.2800
      8 C8        -16.1787   -0.5409   53.1827 C.3     1  ZINC000426037318    0.0300
      9 C9        -12.8594   -0.5468   54.8067 C.ar    1  ZINC000426037318   -0.2000
     10 C10       -11.8984    0.1761   54.0904 C.2     1  ZINC000426037318    0.0500
     11 C11       -12.2166    0.8668   52.7893 C.3     1  ZINC000426037318   -0.1200
     12 C12       -10.6779    0.2130   54.6389 C.2     1  ZINC000426037318   -0.2700
     13 C13        -9.5233    0.9115   54.0604 C.2     1  ZINC000426037318    0.6000
     14 O14        -9.6763    1.9835   53.5054 O.2     1  ZINC000426037318   -0.5000
     15 N15        -8.2940    0.3653   54.1441 N.am    1  ZINC000426037318   -0.6600
     16 C16        -7.1924    1.0317   53.5922 C.ar    1  ZINC000426037318    0.1200
     17 C17        -6.8798    2.3187   54.0076 C.ar    1  ZINC000426037318   -0.0700
     18 C18        -5.7931    2.9751   53.4632 C.ar    1  ZINC000426037318   -0.0900
     19 C19        -5.4537    4.3722   53.9148 C.3     1  ZINC000426037318   -0.1100
     20 C20        -5.0140    2.3490   52.5017 C.ar    1  ZINC000426037318    0.1300
     21 O21        -3.9444    2.9961   51.9670 O.3     1  ZINC000426037318   -0.3100
     22 C22        -3.1224    2.2542   51.0637 C.3     1  ZINC000426037318    0.0200
     23 C23        -5.3251    1.0626   52.0853 C.ar    1  ZINC000426037318   -0.1800
     24 C24        -6.4084    0.4025   52.6324 C.ar    1  ZINC000426037318   -0.0300
     25 Cl25       -6.7976   -1.2075   52.1122 Cl      1  ZINC000426037318   -0.0600
     26 S26       -10.6476   -0.6880   56.1450 S.3     1  ZINC000426037318    0.2200
     27 C27       -12.3483   -1.1058   55.9870 C.ar    1  ZINC000426037318    0.1300
     28 N28       -13.1590   -1.8204   56.7748 N.ar    1  ZINC000426037318   -0.5000
     29 H29       -15.2190   -1.3297   60.3439 H       1  ZINC000426037318    0.0900
     30 H30       -14.6615   -2.9738   59.9508 H       1  ZINC000426037318    0.0500
     31 H31       -13.8589   -1.5633   59.2196 H       1  ZINC000426037318    0.0500
     32 H32       -14.7157   -3.6743   57.7594 H       1  ZINC000426037318    0.0900
     33 H33       -16.1530   -3.1988   56.8232 H       1  ZINC000426037318    0.0800
     34 H34       -16.7565   -0.1310   54.0111 H       1  ZINC000426037318    0.0700
     35 H35       -16.5009   -0.0772   52.2504 H       1  ZINC000426037318    0.1100
     36 H36       -16.3375   -1.6179   53.1268 H       1  ZINC000426037318    0.0700
     37 H37       -12.5500    1.8849   52.9905 H       1  ZINC000426037318    0.0900
     38 H38       -11.3239    0.8937   52.1644 H       1  ZINC000426037318    0.1000
     39 H39       -13.0059    0.3215   52.2720 H       1  ZINC000426037318    0.0800
     40 H40        -8.1721   -0.4893   54.5867 H       1  ZINC000426037318    0.4100
     41 H41        -7.4864    2.8069   54.7560 H       1  ZINC000426037318    0.1600
     42 H42        -4.7695    4.3242   54.7619 H       1  ZINC000426037318    0.0700
     43 H43        -4.9805    4.9139   53.0957 H       1  ZINC000426037318    0.0700
     44 H44        -6.3656    4.8893   54.2132 H       1  ZINC000426037318    0.0700
     45 H45        -2.7119    1.3845   51.5768 H       1  ZINC000426037318    0.0600
     46 H46        -3.7207    1.9259   50.2139 H       1  ZINC000426037318    0.0600
     47 H47        -2.3072    2.8864   50.7114 H       1  ZINC000426037318    0.1000
     48 H48        -4.7179    0.5757   51.3365 H       1  ZINC000426037318    0.1500
@<TRIPOS>BOND
     1     1     2    1
     2     1    29    1
     3     1    30    1
     4     1    31    1
     5     2     3    1
     6     3     4    1
     7     3    32    1
     8     3    33    1
     9     4    28   ar
    10     4     5   ar
    11     5     6   ar
    12     6     7    1
    13     6     9   ar
    14     7     8    1
    15     8    34    1
    16     8    35    1
    17     8    36    1
    18     9    27   ar
    19     9    10    1
    20    10    11    1
    21    10    12    2
    22    11    37    1
    23    11    38    1
    24    11    39    1
    25    12    13    1
    26    12    26    1
    27    13    14    2
    28    13    15   am
    29    15    16    1
    30    15    40    1
    31    16    24   ar
    32    16    17   ar
    33    17    18   ar
    34    17    41    1
    35    18    19    1
    36    18    20   ar
    37    19    42    1
    38    19    43    1
    39    19    44    1
    40    20    21    1
    41    20    23   ar
    42    21    22    1
    43    22    45    1
    44    22    46    1
    45    22    47    1
    46    23    24   ar
    47    23    48    1
    48    24    25    1
    49    26    27    1
    50    27    28   ar
@<TRIPOS>SUBSTRUCTURE
     1 ZINC000426037318        1 TEMP              0 ****  ****    0 ROOT


##########                                Name:    ZINC000028372981
##########                DOCK_Rotatable_Bonds:                   7
##########                         Heavy_Atoms:                  28
##########                    Molecular_Weight:             380.443
##########                DOCK_Rotatable_Bonds:                   7
##########                       Formal_Charge:         1.78814e-07
##########                     HBond_Acceptors:                   6
##########                        HBond_Donors:                   1
##########                         Heavy_Atoms:                  28
##########                          Grid_Score:          -28.342934
##########                     Grid_vdw_energy:          -27.614090
##########                      Grid_es_energy:           -0.728844
##########           Internal_energy_repulsive:          167.208603

@<TRIPOS>MOLECULE
ZINC000028372981
 52 54 1 0 0
SMALL
USER_CHARGES


@<TRIPOS>ATOM
      1 C1        -10.7797   -0.9872   53.4256 C.3     1  ZINC000028372981   -0.1800
      2 C2         -9.3601   -0.5537   53.1657 C.2     1  ZINC000028372981    0.5200
      3 O3         -8.5241   -1.3731   52.8490 O.2     1  ZINC000028372981   -0.5100
      4 N4         -9.0194    0.7449   53.2853 N.am    1  ZINC000028372981   -0.5500
      5 C5         -9.9395    1.8221   53.6590 C.3     1  ZINC000028372981    0.1000
      6 C6         -9.0857    3.1007   53.6580 C.3     1  ZINC000028372981   -0.0900
      7 C7         -7.7011    2.6314   53.2706 C.ar    1  ZINC000028372981   -0.1500
      8 C8         -6.5247    3.3292   53.1130 C.ar    1  ZINC000028372981    0.0000
      9 C9         -5.3576    2.6573   52.7384 C.ar    1  ZINC000028372981   -0.1600
     10 C10        -4.0961    3.4005   52.5631 C.2     1  ZINC000028372981    0.5200
     11 O11        -3.3032    3.0584   51.7083 O.2     1  ZINC000028372981   -0.5000
     12 O12        -3.8227    4.4590   53.3508 O.3     1  ZINC000028372981   -0.3200
     13 C13        -3.3301    4.1765   54.6871 C.3     1  ZINC000028372981    0.0700
     14 H14        -3.5503    3.1403   54.9440 H       1  ZINC000028372981    0.1200
     15 C15        -4.0145    5.1072   55.6903 C.3     1  ZINC000028372981   -0.1700
     16 C16        -1.8402    4.3992   54.7309 C.2     1  ZINC000028372981    0.5200
     17 O17        -1.3268    5.2132   53.9928 O.2     1  ZINC000028372981   -0.4900
     18 N18        -1.0784    3.6938   55.5902 N.am    1  ZINC000028372981   -0.6600
     19 C19         0.3049    3.9005   55.6308 C.ar    1  ZINC000028372981    0.1500
     20 C20         0.8941    4.8328   54.7872 C.ar    1  ZINC000028372981   -0.1300
     21 C21         2.2599    5.0349   54.8300 C.ar    1  ZINC000028372981   -0.1000
     22 C22         3.0400    4.3103   55.7122 C.ar    1  ZINC000028372981   -0.1300
     23 C23         2.4562    3.3813   56.5541 C.ar    1  ZINC000028372981   -0.0700
     24 C24         3.3103    2.5943   57.5143 C.3     1  ZINC000028372981   -0.1200
     25 C25         1.0915    3.1739   56.5155 C.ar    1  ZINC000028372981   -0.1200
     26 C26         0.4563    2.1608   57.4325 C.3     1  ZINC000028372981   -0.1200
     27 C27        -5.3939    1.2744   52.5368 C.ar    1  ZINC000028372981   -0.0200
     28 C28        -6.5709    0.5853   52.7015 C.ar    1  ZINC000028372981   -0.1800
     29 C29        -7.7412    1.2572   53.0712 C.ar    1  ZINC000028372981    0.1900
     30 H30       -11.4486   -0.4749   52.7342 H       1  ZINC000028372981    0.1000
     31 H31       -10.8629   -2.0644   53.2807 H       1  ZINC000028372981    0.1000
     32 H32       -11.0545   -0.7362   54.4501 H       1  ZINC000028372981    0.1000
     33 H33       -10.7431    1.9037   52.9272 H       1  ZINC000028372981    0.0900
     34 H34       -10.3490    1.6417   54.6529 H       1  ZINC000028372981    0.0900
     35 H35        -9.4658    3.8114   52.9242 H       1  ZINC000028372981    0.1000
     36 H36        -9.0730    3.5503   54.6509 H       1  ZINC000028372981    0.1000
     37 H37        -6.5045    4.3968   53.2747 H       1  ZINC000028372981    0.1400
     38 H38        -3.7943    6.1434   55.4334 H       1  ZINC000028372981    0.0800
     39 H39        -5.0921    4.9461   55.6587 H       1  ZINC000028372981    0.0800
     40 H40        -3.6448    4.8951   56.6935 H       1  ZINC000028372981    0.0800
     41 H41        -1.4890    3.0427   56.1805 H       1  ZINC000028372981    0.4100
     42 H42         0.2845    5.4025   54.1013 H       1  ZINC000028372981    0.1400
     43 H43         2.7187    5.7598   54.1741 H       1  ZINC000028372981    0.1300
     44 H44         4.1077    4.4704   55.7440 H       1  ZINC000028372981    0.1200
     45 H45         3.3857    3.1328   58.4589 H       1  ZINC000028372981    0.0700
     46 H46         2.8570    1.6183   57.6876 H       1  ZINC000028372981    0.0700
     47 H47         4.3060    2.4623   57.0908 H       1  ZINC000028372981    0.0700
     48 H48         0.1723    2.6444   58.3672 H       1  ZINC000028372981    0.0700
     49 H49        -0.4306    1.7441   56.9550 H       1  ZINC000028372981    0.0600
     50 H50         1.1675    1.3611   57.6387 H       1  ZINC000028372981    0.0800
     51 H51        -4.4955    0.7473   52.2515 H       1  ZINC000028372981    0.1500
     52 H52        -6.5932   -0.4830   52.5440 H       1  ZINC000028372981    0.1500
@<TRIPOS>BOND
     1     1     2    1
     2     1    30    1
     3     1    31    1
     4     1    32    1
     5     2     3    2
     6     2     4   am
     7     4    29    1
     8     4     5    1
     9     5     6    1
    10     5    33    1
    11     5    34    1
    12     6     7    1
    13     6    35    1
    14     6    36    1
    15     7    29   ar
    16     7     8   ar
    17     8     9   ar
    18     8    37    1
    19     9    10    1
    20     9    27   ar
    21    10    11    2
    22    10    12    1
    23    12    13    1
    24    13    14    1
    25    13    15    1
    26    13    16    1
    27    15    38    1
    28    15    39    1
    29    15    40    1
    30    16    17    2
    31    16    18   am
    32    18    19    1
    33    18    41    1
    34    19    25   ar
    35    19    20   ar
    36    20    21   ar
    37    20    42    1
    38    21    22   ar
    39    21    43    1
    40    22    23   ar
    41    22    44    1
    42    23    24    1
    43    23    25   ar
    44    24    45    1
    45    24    46    1
    46    24    47    1
    47    25    26    1
    48    26    48    1
    49    26    49    1
    50    26    50    1
    51    27    28   ar
    52    27    51    1
    53    28    29   ar
    54    28    52    1
@<TRIPOS>SUBSTRUCTURE
     1 ZINC000028372981        1 TEMP              0 ****  ****    0 ROOT


##########                                Name:    ZINC000461678839
##########                DOCK_Rotatable_Bonds:                   6
##########                         Heavy_Atoms:                  28
##########                    Molecular_Weight:             404.939
##########                DOCK_Rotatable_Bonds:                   6
##########                       Formal_Charge:          -0.0200003
##########                     HBond_Acceptors:                   7
##########                        HBond_Donors:                   0
##########                         Heavy_Atoms:                  28
##########                          Grid_Score:          -28.336382
##########                     Grid_vdw_energy:          -29.014795
##########                      Grid_es_energy:            0.678413
##########           Internal_energy_repulsive:            9.073748

@<TRIPOS>MOLECULE
ZINC000461678839
 57 60 1 0 0
SMALL
USER_CHARGES


@<TRIPOS>ATOM
      1 C1        -13.9403   -1.4913   60.1154 C.3     1  ZINC000461678839   -0.1500
      2 C2        -13.2266   -1.9448   58.8403 C.3     1  ZINC000461678839   -0.0900
      3 H3        -13.8250   -2.7145   58.3527 H       1  ZINC000461678839    0.0700
      4 C4        -11.8509   -2.5392   59.2170 C.3     1  ZINC000461678839   -0.1100
      5 C5        -11.3460   -3.3661   58.0647 C.3     1  ZINC000461678839   -0.1200
      6 C6        -10.4679   -2.5623   57.0890 C.3     1  ZINC000461678839    0.0600
      7 N7        -10.9986   -1.2121   56.7992 N.3     1  ZINC000461678839   -0.4600
      8 C8        -10.3369   -0.6384   55.7251 C.2     1  ZINC000461678839    0.3700
      9 N9         -9.9727   -1.2441   54.6196 N.2     1  ZINC000461678839   -0.3100
     10 N10        -9.3824   -0.4106   53.8392 N.2     1  ZINC000461678839   -0.2500
     11 C11        -9.3353    0.7664   54.3960 C.2     1  ZINC000461678839    0.1700
     12 C12        -8.7263    2.0111   53.8036 C.3     1  ZINC000461678839    0.1500
     13 O13        -7.4502    2.2479   54.4015 O.3     1  ZINC000461678839   -0.3100
     14 C14        -6.3627    2.1573   53.5911 C.ar    1  ZINC000461678839    0.1400
     15 C15        -5.5040    3.2385   53.4577 C.ar    1  ZINC000461678839   -0.2000
     16 C16        -4.3993    3.1445   52.6335 C.ar    1  ZINC000461678839   -0.0700
     17 C17        -4.1494    1.9730   51.9410 C.ar    1  ZINC000461678839   -0.0700
     18 Cl18       -2.7609    1.8574   50.9055 Cl      1  ZINC000461678839   -0.0700
     19 C19        -5.0045    0.8933   52.0732 C.ar    1  ZINC000461678839   -0.0700
     20 C20        -6.1070    0.9815   52.9008 C.ar    1  ZINC000461678839   -0.1400
     21 N21        -9.9463    0.6644   55.6151 N.pl3   1  ZINC000461678839   -0.4600
     22 C22       -10.1346    1.7306   56.6020 C.3     1  ZINC000461678839    0.1200
     23 C23        -8.8753    1.8586   57.4613 C.3     1  ZINC000461678839   -0.1400
     24 H24        -7.9880    1.6231   56.8735 H       1  ZINC000461678839    0.0900
     25 C25        -8.9670    0.9326   58.6984 C.3     1  ZINC000461678839   -0.1500
     26 C26        -8.3698    1.8245   59.8166 C.3     1  ZINC000461678839    0.0500
     27 O27        -8.8503    3.1454   59.4865 O.3     1  ZINC000461678839   -0.3700
     28 C28        -8.7687    3.2769   58.0543 C.3     1  ZINC000461678839    0.0400
     29 C29       -12.4278   -1.1819   56.6021 C.3     1  ZINC000461678839    0.0700
     30 C30       -13.0913   -0.8054   57.9396 C.3     1  ZINC000461678839   -0.1100
     31 H31       -14.9200   -1.0876   59.8594 H       1  ZINC000461678839    0.0500
     32 H32       -14.0619   -2.3420   60.7860 H       1  ZINC000461678839    0.0500
     33 H33       -13.3476   -0.7211   60.6091 H       1  ZINC000461678839    0.0600
     34 H34       -11.1482   -1.7317   59.4224 H       1  ZINC000461678839    0.0700
     35 H35       -11.9547   -3.1691   60.1004 H       1  ZINC000461678839    0.0700
     36 H36       -10.7622   -4.1979   58.4588 H       1  ZINC000461678839    0.0800
     37 H37       -12.2004   -3.7669   57.5193 H       1  ZINC000461678839    0.0700
     38 H38        -9.4708   -2.4615   57.5179 H       1  ZINC000461678839    0.0700
     39 H39       -10.3888   -3.1153   56.1530 H       1  ZINC000461678839    0.0500
     40 H40        -8.6050    1.8799   52.7284 H       1  ZINC000461678839    0.0800
     41 H41        -9.3805    2.8618   53.9945 H       1  ZINC000461678839    0.1000
     42 H42        -5.6991    4.1534   53.9975 H       1  ZINC000461678839    0.1400
     43 H43        -3.7305    3.9861   52.5293 H       1  ZINC000461678839    0.1400
     44 H44        -4.8076   -0.0205   51.5322 H       1  ZINC000461678839    0.1400
     45 H45        -6.7743    0.1385   53.0037 H       1  ZINC000461678839    0.1400
     46 H46       -10.3207    2.6733   56.0874 H       1  ZINC000461678839    0.1100
     47 H47       -10.9861    1.4901   57.2386 H       1  ZINC000461678839    0.1000
     48 H48       -10.0038    0.6769   58.9170 H       1  ZINC000461678839    0.0800
     49 H49        -8.3677    0.0333   58.5566 H       1  ZINC000461678839    0.0900
     50 H50        -8.7402    1.5144   60.7938 H       1  ZINC000461678839    0.1000
     51 H51        -7.2805    1.7947   59.7907 H       1  ZINC000461678839    0.0600
     52 H52        -7.8155    3.7270   57.7771 H       1  ZINC000461678839    0.0500
     53 H53        -9.5913    3.8929   57.6912 H       1  ZINC000461678839    0.1100
     54 H54       -12.6786   -0.4388   55.8451 H       1  ZINC000461678839    0.0900
     55 H55       -12.7754   -2.1643   56.2825 H       1  ZINC000461678839    0.0600
     56 H56       -14.0820   -0.3977   57.7387 H       1  ZINC000461678839    0.0700
     57 H57       -12.4896   -0.0386   58.4276 H       1  ZINC000461678839    0.0700
@<TRIPOS>BOND
     1     1     2    1
     2     1    31    1
     3     1    32    1
     4     1    33    1
     5     2     3    1
     6     2    30    1
     7     2     4    1
     8     4     5    1
     9     4    34    1
    10     4    35    1
    11     5     6    1
    12     5    36    1
    13     5    37    1
    14     6     7    1
    15     6    38    1
    16     6    39    1
    17     7     8    1
    18     7    29    1
    19     8    21    1
    20     8     9    2
    21     9    10    1
    22    10    11    2
    23    11    12    1
    24    11    21    1
    25    12    13    1
    26    12    40    1
    27    12    41    1
    28    13    14    1
    29    14    20   ar
    30    14    15   ar
    31    15    16   ar
    32    15    42    1
    33    16    17   ar
    34    16    43    1
    35    17    18    1
    36    17    19   ar
    37    19    20   ar
    38    19    44    1
    39    20    45    1
    40    21    22    1
    41    22    23    1
    42    22    46    1
    43    22    47    1
    44    23    24    1
    45    23    28    1
    46    23    25    1
    47    25    26    1
    48    25    48    1
    49    25    49    1
    50    26    27    1
    51    26    50    1
    52    26    51    1
    53    27    28    1
    54    28    52    1
    55    28    53    1
    56    29    30    1
    57    29    54    1
    58    29    55    1
    59    30    56    1
    60    30    57    1
@<TRIPOS>SUBSTRUCTURE
     1 ZINC000461678839        1 TEMP              0 ****  ****    0 ROOT


##########                                Name:    ZINC000668548901
##########                DOCK_Rotatable_Bonds:                   9
##########                         Heavy_Atoms:                  26
##########                    Molecular_Weight:             374.464
##########                DOCK_Rotatable_Bonds:                   9
##########                       Formal_Charge:         3.53903e-07
##########                     HBond_Acceptors:                   8
##########                        HBond_Donors:                   3
##########                         Heavy_Atoms:                  26
##########                          Grid_Score:          -28.321655
##########                     Grid_vdw_energy:          -27.632875
##########                      Grid_es_energy:           -0.688779
##########           Internal_energy_repulsive:           11.619259

@<TRIPOS>MOLECULE
ZINC000668548901
 48 50 1 0 0
SMALL
USER_CHARGES


@<TRIPOS>ATOM
      1 O1         -8.2613    3.1253   56.9951 O.2     1  ZINC000668548901   -0.5700
      2 C2         -7.2640    2.4723   56.7558 C.2     1  ZINC000668548901    0.7100
      3 N3         -6.5062    2.0044   57.7674 N.am    1  ZINC000668548901   -0.6800
      4 C4         -6.8632    2.2740   59.0894 C.ar    1  ZINC000668548901    0.2200
      5 C5         -6.6839    3.5470   59.6332 C.ar    1  ZINC000668548901   -0.1700
      6 C6         -7.0477    3.7773   60.9427 C.ar    1  ZINC000668548901    0.1200
      7 N7         -7.5605    2.8129   61.6840 N.ar    1  ZINC000668548901   -0.4300
      8 C8         -7.7476    1.5901   61.2074 C.ar    1  ZINC000668548901    0.1100
      9 S9         -8.4370    0.3451   62.2464 S.3     1  ZINC000668548901    0.0900
     10 C10        -7.8038    0.7611   63.8373 C.ar    1  ZINC000668548901    0.0900
     11 C11        -8.6827    0.9856   64.8919 C.ar    1  ZINC000668548901   -0.1500
     12 C12        -8.1719    1.3110   66.1357 C.ar    1  ZINC000668548901   -0.0700
     13 C13        -6.7941    1.4011   66.2833 C.ar    1  ZINC000668548901   -0.1700
     14 C14        -5.9801    1.1654   65.1930 C.ar    1  ZINC000668548901    0.1000
     15 N15        -6.4949    0.8519   64.0196 N.ar    1  ZINC000668548901   -0.4200
     16 C16        -7.4117    1.2823   59.8958 C.ar    1  ZINC000668548901   -0.1800
     17 N17        -6.9192    2.2119   55.4792 N.am    1  ZINC000668548901   -0.7200
     18 C18        -7.7429    2.7206   54.3797 C.3     1  ZINC000668548901    0.1700
     19 H19        -8.0331    3.7502   54.5893 H       1  ZINC000668548901    0.1000
     20 C20        -8.9970    1.8556   54.2395 C.3     1  ZINC000668548901    0.0600
     21 O21        -8.7361    0.5503   54.7593 O.3     1  ZINC000668548901   -0.5700
     22 C22        -6.9414    2.6718   53.0773 C.3     1  ZINC000668548901   -0.1300
     23 H23        -7.5650    3.0172   52.2527 H       1  ZINC000668548901    0.1000
     24 C24        -6.4881    1.2335   52.8087 C.3     1  ZINC000668548901   -0.1200
     25 C25        -5.6222    1.2102   51.5454 C.3     1  ZINC000668548901   -0.1600
     26 C26        -4.4412    2.1671   51.7280 C.3     1  ZINC000668548901    0.0600
     27 O27        -4.9322    3.4802   52.0051 O.3     1  ZINC000668548901   -0.3800
     28 C28        -5.7103    3.5734   53.2001 C.3     1  ZINC000668548901    0.0700
     29 H29        -5.7128    1.4800   57.5766 H       1  ZINC000668548901    0.4100
     30 H30        -6.2645    4.3424   59.0348 H       1  ZINC000668548901    0.1500
     31 H31        -6.9111    4.7605   61.3681 H       1  ZINC000668548901    0.1600
     32 H32        -9.7493    0.9074   64.7417 H       1  ZINC000668548901    0.1400
     33 H33        -8.8299    1.4912   66.9729 H       1  ZINC000668548901    0.1400
     34 H34        -6.3636    1.6535   67.2411 H       1  ZINC000668548901    0.1400
     35 H35        -4.9080    1.2348   65.3034 H       1  ZINC000668548901    0.1600
     36 H36        -7.5654    0.2852   59.5103 H       1  ZINC000668548901    0.1400
     37 H37        -6.1257    1.6876   55.2884 H       1  ZINC000668548901    0.4000
     38 H38        -9.8165    2.3110   54.7955 H       1  ZINC000668548901    0.0500
     39 H39        -9.2702    1.7796   53.1870 H       1  ZINC000668548901    0.0600
     40 H40        -8.5173    0.5385   55.7011 H       1  ZINC000668548901    0.3800
     41 H41        -5.9067    0.8702   53.6561 H       1  ZINC000668548901    0.0700
     42 H42        -7.3611    0.5970   52.6642 H       1  ZINC000668548901    0.0700
     43 H43        -5.2496    0.1996   51.3777 H       1  ZINC000668548901    0.0800
     44 H44        -6.2182    1.5263   50.6894 H       1  ZINC000668548901    0.0700
     45 H45        -3.8230    1.8273   52.5590 H       1  ZINC000668548901    0.0500
     46 H46        -3.8450    2.1869   50.8156 H       1  ZINC000668548901    0.1000
     47 H47        -6.0272    4.6058   53.3478 H       1  ZINC000668548901    0.1000
     48 H48        -5.1096    3.2521   54.0510 H       1  ZINC000668548901    0.0500
@<TRIPOS>BOND
     1     1     2    2
     2     2     3   am
     3     2    17   am
     4     3     4    1
     5     3    29    1
     6     4    16   ar
     7     4     5   ar
     8     5     6   ar
     9     5    30    1
    10     6     7   ar
    11     6    31    1
    12     7     8   ar
    13     8     9    1
    14     8    16   ar
    15     9    10    1
    16    10    15   ar
    17    10    11   ar
    18    11    12   ar
    19    11    32    1
    20    12    13   ar
    21    12    33    1
    22    13    14   ar
    23    13    34    1
    24    14    15   ar
    25    14    35    1
    26    16    36    1
    27    17    18    1
    28    17    37    1
    29    18    19    1
    30    18    20    1
    31    18    22    1
    32    20    21    1
    33    20    38    1
    34    20    39    1
    35    21    40    1
    36    22    23    1
    37    22    28    1
    38    22    24    1
    39    24    25    1
    40    24    41    1
    41    24    42    1
    42    25    26    1
    43    25    43    1
    44    25    44    1
    45    26    27    1
    46    26    45    1
    47    26    46    1
    48    27    28    1
    49    28    47    1
    50    28    48    1
@<TRIPOS>SUBSTRUCTURE
     1 ZINC000668548901        1 TEMP              0 ****  ****    0 ROOT


##########                                Name:    ZINC000471198073
##########                DOCK_Rotatable_Bonds:                  12
##########                         Heavy_Atoms:                  30
##########                    Molecular_Weight:             409.528
##########                DOCK_Rotatable_Bonds:                  12
##########                       Formal_Charge:          -0.0399998
##########                     HBond_Acceptors:                   6
##########                        HBond_Donors:                   3
##########                         Heavy_Atoms:                  30
##########                          Grid_Score:          -28.318840
##########                     Grid_vdw_energy:          -28.051289
##########                      Grid_es_energy:           -0.267551
##########           Internal_energy_repulsive:           29.316725

@<TRIPOS>MOLECULE
ZINC000471198073
 61 62 1 0 0
SMALL
USER_CHARGES


@<TRIPOS>ATOM
      1 C1        -16.8167   -2.4377   49.6986 C.3     1  ZINC000471198073   -0.1400
      2 C2        -15.7316   -2.1466   48.6600 C.3     1  ZINC000471198073   -0.1100
      3 C3        -16.3235   -1.3078   47.5255 C.3     1  ZINC000471198073   -0.1500
      4 C4        -14.6043   -1.3871   49.3106 C.2     1  ZINC000471198073    0.5200
      5 O5        -13.4559   -1.6197   48.9970 O.2     1  ZINC000471198073   -0.5200
      6 N6        -14.8720   -0.4494   50.2409 N.am    1  ZINC000471198073   -0.6700
      7 C7        -13.8252    0.2557   50.8450 C.ar    1  ZINC000471198073    0.1600
      8 C8        -13.3312    1.4104   50.2516 C.ar    1  ZINC000471198073   -0.1500
      9 C9        -12.2976    2.1078   50.8475 C.ar    1  ZINC000471198073   -0.0800
     10 C10       -11.7523    1.6596   52.0347 C.ar    1  ZINC000471198073   -0.1300
     11 C11       -12.2416    0.5046   52.6335 C.ar    1  ZINC000471198073    0.1500
     12 N12       -11.6893    0.0513   53.8343 N.am    1  ZINC000471198073   -0.6400
     13 C13       -10.7969   -0.9587   53.8267 C.2     1  ZINC000471198073    0.5100
     14 O14       -10.4729   -1.4744   52.7768 O.2     1  ZINC000471198073   -0.5000
     15 C15       -10.2066   -1.4433   55.1102 C.2     1  ZINC000471198073    0.5100
     16 O16        -9.8003   -2.5834   55.1991 O.2     1  ZINC000471198073   -0.5100
     17 N17       -10.1250   -0.6143   56.1698 N.am    1  ZINC000471198073   -0.7000
     18 C18        -9.5475   -1.0900   57.4293 C.3     1  ZINC000471198073    0.1200
     19 C19       -10.5023   -0.7702   58.5811 C.3     1  ZINC000471198073   -0.0900
     20 H20       -10.0685   -1.1162   59.5194 H       1  ZINC000471198073    0.0800
     21 C21       -10.7292    0.7412   58.6509 C.3     1  ZINC000471198073   -0.0800
     22 C22        -9.4452    1.4243   59.0456 C.ar    1  ZINC000471198073   -0.0800
     23 C23        -9.1293    1.5832   60.3819 C.ar    1  ZINC000471198073   -0.1200
     24 C24        -7.9515    2.2097   60.7439 C.ar    1  ZINC000471198073   -0.1200
     25 C25        -7.0894    2.6770   59.7696 C.ar    1  ZINC000471198073   -0.1200
     26 C26        -7.4048    2.5173   58.4332 C.ar    1  ZINC000471198073   -0.1200
     27 C27        -8.5806    1.8869   58.0712 C.ar    1  ZINC000471198073   -0.1200
     28 C28       -11.8391   -1.4763   58.3464 C.3     1  ZINC000471198073   -0.1000
     29 C29       -12.3852   -1.9907   59.6799 C.3     1  ZINC000471198073   -0.1600
     30 C30       -12.8359   -0.4907   57.7333 C.3     1  ZINC000471198073   -0.1700
     31 C31       -13.2834   -0.1947   52.0403 C.ar    1  ZINC000471198073   -0.1400
     32 H32       -17.6321   -2.9870   49.2281 H       1  ZINC000471198073    0.0700
     33 H33       -16.3950   -3.0353   50.5069 H       1  ZINC000471198073    0.0600
     34 H34       -17.1959   -1.4984   50.1010 H       1  ZINC000471198073    0.0600
     35 H35       -15.3524   -3.0859   48.2576 H       1  ZINC000471198073    0.1000
     36 H36       -16.7029   -0.3685   47.9278 H       1  ZINC000471198073    0.0600
     37 H37       -15.5506   -1.1003   46.7855 H       1  ZINC000471198073    0.0600
     38 H38       -17.1391   -1.8571   47.0549 H       1  ZINC000471198073    0.0700
     39 H39       -15.7903   -0.2634   50.4917 H       1  ZINC000471198073    0.4100
     40 H40       -13.7551    1.7635   49.3231 H       1  ZINC000471198073    0.1300
     41 H41       -11.9152    3.0051   50.3839 H       1  ZINC000471198073    0.1300
     42 H42       -10.9446    2.2068   52.4980 H       1  ZINC000471198073    0.1400
     43 H43       -11.9482    0.4634   54.6734 H       1  ZINC000471198073    0.4200
     44 H44       -10.4486    0.2973   56.0983 H       1  ZINC000471198073    0.4200
     45 H45        -9.3930   -2.1677   57.3739 H       1  ZINC000471198073    0.0700
     46 H46        -8.5921   -0.5944   57.6010 H       1  ZINC000471198073    0.0800
     47 H47       -11.0497    1.1059   57.6750 H       1  ZINC000471198073    0.0800
     48 H48       -11.4992    0.9592   59.3911 H       1  ZINC000471198073    0.0800
     49 H49        -9.8028    1.2182   61.1431 H       1  ZINC000471198073    0.1200
     50 H50        -7.7051    2.3346   61.7880 H       1  ZINC000471198073    0.1200
     51 H51        -6.1696    3.1672   60.0524 H       1  ZINC000471198073    0.1200
     52 H52        -6.7315    2.8826   57.6720 H       1  ZINC000471198073    0.1200
     53 H53        -8.8271    1.7621   57.0271 H       1  ZINC000471198073    0.1200
     54 H54       -11.6924   -2.3152   57.6660 H       1  ZINC000471198073    0.0800
     55 H55       -12.6245   -1.1453   60.3249 H       1  ZINC000471198073    0.0600
     56 H56       -13.2861   -2.5778   59.5013 H       1  ZINC000471198073    0.0600
     57 H57       -11.6343   -2.6155   60.1633 H       1  ZINC000471198073    0.0600
     58 H58       -12.3938   -0.0287   56.8506 H       1  ZINC000471198073    0.0600
     59 H59       -13.7441   -1.0220   57.4489 H       1  ZINC000471198073    0.0600
     60 H60       -13.0798    0.2808   58.4635 H       1  ZINC000471198073    0.0700
     61 H61       -13.6655   -1.0925   52.5034 H       1  ZINC000471198073    0.1400
@<TRIPOS>BOND
     1     1     2    1
     2     1    32    1
     3     1    33    1
     4     1    34    1
     5     2     3    1
     6     2     4    1
     7     2    35    1
     8     3    36    1
     9     3    37    1
    10     3    38    1
    11     4     5    2
    12     4     6   am
    13     6     7    1
    14     6    39    1
    15     7    31   ar
    16     7     8   ar
    17     8     9   ar
    18     8    40    1
    19     9    10   ar
    20     9    41    1
    21    10    11   ar
    22    10    42    1
    23    11    12    1
    24    11    31   ar
    25    12    13   am
    26    12    43    1
    27    13    14    2
    28    13    15    1
    29    15    16    2
    30    15    17   am
    31    17    18    1
    32    17    44    1
    33    18    19    1
    34    18    45    1
    35    18    46    1
    36    19    20    1
    37    19    21    1
    38    19    28    1
    39    21    22    1
    40    21    47    1
    41    21    48    1
    42    22    27   ar
    43    22    23   ar
    44    23    24   ar
    45    23    49    1
    46    24    25   ar
    47    24    50    1
    48    25    26   ar
    49    25    51    1
    50    26    27   ar
    51    26    52    1
    52    27    53    1
    53    28    29    1
    54    28    30    1
    55    28    54    1
    56    29    55    1
    57    29    56    1
    58    29    57    1
    59    30    58    1
    60    30    59    1
    61    30    60    1
    62    31    61    1
@<TRIPOS>SUBSTRUCTURE
     1 ZINC000471198073        1 TEMP              0 ****  ****    0 ROOT


##########                                Name:    ZINC000541568816
##########                DOCK_Rotatable_Bonds:                   8
##########                         Heavy_Atoms:                  25
##########                    Molecular_Weight:             411.339
##########                DOCK_Rotatable_Bonds:                   8
##########                       Formal_Charge:          -0.0100007
##########                     HBond_Acceptors:                   5
##########                        HBond_Donors:                   1
##########                         Heavy_Atoms:                  25
##########                          Grid_Score:          -28.316742
##########                     Grid_vdw_energy:          -28.506136
##########                      Grid_es_energy:            0.189394
##########           Internal_energy_repulsive:           23.260035

@<TRIPOS>MOLECULE
ZINC000541568816
 52 54 1 0 0
SMALL
USER_CHARGES


@<TRIPOS>ATOM
      1 C1         -9.9569    4.3325   49.1004 C.3     1  ZINC000541568816   -0.1500
      2 C2         -9.8288    4.1742   50.6168 C.3     1  ZINC000541568816    0.0600
      3 O3         -8.5701    3.5737   50.9283 O.3     1  ZINC000541568816   -0.3700
      4 C4         -8.3869    3.2958   52.3180 C.3     1  ZINC000541568816    0.0700
      5 H5         -9.2587    2.8278   52.7750 H       1  ZINC000541568816    0.0900
      6 C6         -7.8363    4.4892   53.1187 C.3     1  ZINC000541568816   -0.1700
      7 C7         -6.9510    3.4793   53.8698 C.3     1  ZINC000541568816    0.1500
      8 H8         -5.9386    3.8383   54.0549 H       1  ZINC000541568816    0.1100
      9 N9         -7.5842    2.9190   55.0662 N.am    1  ZINC000541568816   -0.7200
     10 C10        -6.8409    2.6463   56.1570 C.2     1  ZINC000541568816    0.7100
     11 O11        -5.6452    2.8667   56.1485 O.2     1  ZINC000541568816   -0.5800
     12 N12        -7.4231    2.1293   57.2571 N.am    1  ZINC000541568816   -0.6300
     13 C13        -6.6150    1.8313   58.4422 C.3     1  ZINC000541568816    0.1000
     14 C14        -6.6211    3.0396   59.3807 C.3     1  ZINC000541568816   -0.1800
     15 C15        -8.8642    1.8655   57.2679 C.3     1  ZINC000541568816    0.1700
     16 C16        -9.1201    0.4551   56.8031 C.ar    1  ZINC000541568816   -0.0700
     17 C17        -9.1847    0.1737   55.4516 C.ar    1  ZINC000541568816   -0.1000
     18 C18        -9.4194   -1.1203   55.0251 C.ar    1  ZINC000541568816   -0.1000
     19 C19        -9.5892   -2.1333   55.9502 C.ar    1  ZINC000541568816   -0.1200
     20 C20        -9.5248   -1.8528   57.3023 C.ar    1  ZINC000541568816   -0.0900
     21 C21        -9.2848   -0.5594   57.7293 C.ar    1  ZINC000541568816   -0.0900
     22 Br22       -9.1965   -0.1750   59.5787 Br      1  ZINC000541568816   -0.0500
     23 C23        -7.0695    2.5800   52.6328 C.3     1  ZINC000541568816    0.0800
     24 C24        -5.9631    2.7850   51.5836 C.3     1  ZINC000541568816   -0.1200
     25 C25        -5.1382    1.4749   51.7216 C.3     1  ZINC000541568816   -0.1600
     26 C26        -6.2542    0.4576   52.0712 C.3     1  ZINC000541568816    0.0500
     27 O27        -7.1785    1.1834   52.9005 O.3     1  ZINC000541568816   -0.3600
     28 H28        -9.1507    4.9668   48.7319 H       1  ZINC000541568816    0.0600
     29 H29        -9.8944    3.3531   48.6263 H       1  ZINC000541568816    0.0600
     30 H30       -10.9170    4.7906   48.8627 H       1  ZINC000541568816    0.0700
     31 H31        -9.8914    5.1537   51.0909 H       1  ZINC000541568816    0.0500
     32 H32       -10.6351    3.5400   50.9853 H       1  ZINC000541568816    0.0500
     33 H33        -7.2720    5.1981   52.5127 H       1  ZINC000541568816    0.1000
     34 H34        -8.5816    4.9713   53.7512 H       1  ZINC000541568816    0.0800
     35 H35        -8.5383    2.7443   55.0734 H       1  ZINC000541568816    0.4000
     36 H36        -7.0330    0.9676   58.9591 H       1  ZINC000541568816    0.0900
     37 H37        -5.5913    1.6125   58.1382 H       1  ZINC000541568816    0.0700
     38 H38        -7.6447    3.2585   59.6847 H       1  ZINC000541568816    0.0600
     39 H39        -6.0198    2.8179   60.2624 H       1  ZINC000541568816    0.0700
     40 H40        -6.2031    3.9034   58.8637 H       1  ZINC000541568816    0.0600
     41 H41        -9.2487    1.9900   58.2802 H       1  ZINC000541568816    0.1000
     42 H42        -9.3666    2.5651   56.5998 H       1  ZINC000541568816    0.1100
     43 H43        -9.0521    0.9649   54.7285 H       1  ZINC000541568816    0.1300
     44 H44        -9.4706   -1.3398   53.9688 H       1  ZINC000541568816    0.1300
     45 H45        -9.7726   -3.1440   55.6165 H       1  ZINC000541568816    0.1300
     46 H46        -9.6578   -2.6442   58.0250 H       1  ZINC000541568816    0.1300
     47 H47        -6.3871    2.8743   50.5834 H       1  ZINC000541568816    0.1000
     48 H48        -5.3538    3.6557   51.8257 H       1  ZINC000541568816    0.0900
     49 H49        -4.6517    1.2163   50.7811 H       1  ZINC000541568816    0.0900
     50 H50        -4.4106    1.5524   52.5295 H       1  ZINC000541568816    0.0800
     51 H51        -6.7502    0.1136   51.1636 H       1  ZINC000541568816    0.0600
     52 H52        -5.8376   -0.3876   52.6191 H       1  ZINC000541568816    0.0900
@<TRIPOS>BOND
     1     1     2    1
     2     1    28    1
     3     1    29    1
     4     1    30    1
     5     2     3    1
     6     2    31    1
     7     2    32    1
     8     3     4    1
     9     4     5    1
    10     4    23    1
    11     4     6    1
    12     6     7    1
    13     6    33    1
    14     6    34    1
    15     7     8    1
    16     7     9    1
    17     7    23    1
    18     9    10   am
    19     9    35    1
    20    10    11    2
    21    10    12   am
    22    12    13    1
    23    12    15    1
    24    13    14    1
    25    13    36    1
    26    13    37    1
    27    14    38    1
    28    14    39    1
    29    14    40    1
    30    15    16    1
    31    15    41    1
    32    15    42    1
    33    16    21   ar
    34    16    17   ar
    35    17    18   ar
    36    17    43    1
    37    18    19   ar
    38    18    44    1
    39    19    20   ar
    40    19    45    1
    41    20    21   ar
    42    20    46    1
    43    21    22    1
    44    23    27    1
    45    23    24    1
    46    24    25    1
    47    24    47    1
    48    24    48    1
    49    25    26    1
    50    25    49    1
    51    25    50    1
    52    26    27    1
    53    26    51    1
    54    26    52    1
@<TRIPOS>SUBSTRUCTURE
     1 ZINC000541568816        1 TEMP              0 ****  ****    0 ROOT


##########                                Name:    ZINC000867639366
##########                DOCK_Rotatable_Bonds:                   6
##########                         Heavy_Atoms:                  25
##########                    Molecular_Weight:             388.509
##########                DOCK_Rotatable_Bonds:                   6
##########                       Formal_Charge:          0.00999961
##########                     HBond_Acceptors:                   9
##########                        HBond_Donors:                   1
##########                         Heavy_Atoms:                  25
##########                          Grid_Score:          -28.302649
##########                     Grid_vdw_energy:          -25.203320
##########                      Grid_es_energy:           -3.099328
##########           Internal_energy_repulsive:           45.368904

@<TRIPOS>MOLECULE
ZINC000867639366
 49 51 1 0 0
SMALL
USER_CHARGES


@<TRIPOS>ATOM
      1 C1         -8.5680    0.9414   55.0256 C.3     1  ZINC000867639366    0.0300
      2 O2         -8.3959    1.7519   56.1898 O.3     1  ZINC000867639366   -0.3800
      3 C3         -9.6167    2.0742   56.8592 C.3     1  ZINC000867639366    0.0800
      4 H4        -10.4551    1.9236   56.1792 H       1  ZINC000867639366    0.0800
      5 C5         -9.5812    3.5362   57.3104 C.3     1  ZINC000867639366   -0.1400
      6 C6         -8.3845    3.7564   58.2386 C.3     1  ZINC000867639366   -0.1200
      7 C7         -8.5361    2.8710   59.4795 C.3     1  ZINC000867639366    0.1500
      8 H8         -9.4060    3.1913   60.0529 H       1  ZINC000867639366    0.0800
      9 C9         -7.2805    2.9837   60.3466 C.3     1  ZINC000867639366   -0.1900
     10 N10        -8.7164    1.4783   59.0475 N.am    1  ZINC000867639366   -0.9800
     11 S11        -7.7373    0.2791   59.6354 S.o2    1  ZINC000867639366    2.6900
     12 O12        -8.2654   -0.9460   59.1461 O.2     1  ZINC000867639366   -0.9500
     13 O13        -6.4010    0.6995   59.3976 O.2     1  ZINC000867639366   -0.9400
     14 C14        -7.9450    0.2469   61.3848 C.ar    1  ZINC000867639366   -0.6300
     15 C15        -9.2154    0.2430   61.9300 C.ar    1  ZINC000867639366   -0.0500
     16 C16        -9.3783    0.2177   63.3026 C.ar    1  ZINC000867639366   -0.0400
     17 C17        -8.2711    0.1958   64.1298 C.ar    1  ZINC000867639366   -0.6300
     18 S18        -8.4788    0.1641   65.8792 S.o2    1  ZINC000867639366    2.7000
     19 O19        -9.0788   -1.0859   66.1895 O.2     1  ZINC000867639366   -0.9400
     20 O20        -7.2447    0.5938   66.4376 O.2     1  ZINC000867639366   -0.9500
     21 N21        -9.5949    1.3263   66.2615 N.am    1  ZINC000867639366   -1.0800
     22 C22        -9.3365    2.7286   65.9256 C.3     1  ZINC000867639366    0.0800
     23 C23        -9.6047    3.1713   64.4858 C.3     1  ZINC000867639366   -0.1800
     24 C24       -10.5440    3.6135   65.6096 C.3     1  ZINC000867639366   -0.1900
     25 C25        -7.0008    0.1983   63.5846 C.ar    1  ZINC000867639366   -0.0400
     26 C26        -6.8378    0.2197   62.2120 C.ar    1  ZINC000867639366   -0.0400
     27 C27        -9.7826    1.1692   58.0840 C.3     1  ZINC000867639366    0.1200
     28 H28        -9.0399   -0.0005   55.3052 H       1  ZINC000867639366    0.0400
     29 H29        -9.1995    1.4653   54.3081 H       1  ZINC000867639366    0.0400
     30 H30        -7.5956    0.7411   54.5755 H       1  ZINC000867639366    0.0900
     31 H31        -9.4882    4.1832   56.4382 H       1  ZINC000867639366    0.0700
     32 H32       -10.5022    3.7744   57.8425 H       1  ZINC000867639366    0.0700
     33 H33        -7.4650    3.4948   57.7151 H       1  ZINC000867639366    0.0800
     34 H34        -8.3463    4.8030   58.5410 H       1  ZINC000867639366    0.0800
     35 H35        -7.2201    3.9864   60.7699 H       1  ZINC000867639366    0.0700
     36 H36        -7.3286    2.2514   61.1524 H       1  ZINC000867639366    0.0600
     37 H37        -6.3985    2.7938   59.7351 H       1  ZINC000867639366    0.1000
     38 H38       -10.0805    0.2603   61.2837 H       1  ZINC000867639366    0.1600
     39 H39       -10.3708    0.2155   63.7285 H       1  ZINC000867639366    0.1500
     40 H40       -10.4197    1.0785   66.7078 H       1  ZINC000867639366    0.4200
     41 H41        -8.4971    3.1898   66.4462 H       1  ZINC000867639366    0.1400
     42 H42        -8.9416    3.9236   64.0587 H       1  ZINC000867639366    0.1100
     43 H43        -9.9734    2.4190   63.7885 H       1  ZINC000867639366    0.1000
     44 H44       -11.5307    3.1522   65.6517 H       1  ZINC000867639366    0.1000
     45 H45       -10.4989    4.6568   65.9220 H       1  ZINC000867639366    0.1000
     46 H46        -6.1357    0.1807   64.2308 H       1  ZINC000867639366    0.1500
     47 H47        -5.8454    0.2216   61.7860 H       1  ZINC000867639366    0.1500
     48 H48       -10.7542    1.3507   58.5435 H       1  ZINC000867639366    0.0900
     49 H49        -9.7091    0.1251   57.7801 H       1  ZINC000867639366    0.1000
@<TRIPOS>BOND
     1     1     2    1
     2     1    28    1
     3     1    29    1
     4     1    30    1
     5     2     3    1
     6     3     4    1
     7     3    27    1
     8     3     5    1
     9     5     6    1
    10     5    31    1
    11     5    32    1
    12     6     7    1
    13     6    33    1
    14     6    34    1
    15     7     8    1
    16     7     9    1
    17     7    10    1
    18     9    35    1
    19     9    36    1
    20     9    37    1
    21    10    11   am
    22    10    27    1
    23    11    12    2
    24    11    13    2
    25    11    14    1
    26    14    26   ar
    27    14    15   ar
    28    15    16   ar
    29    15    38    1
    30    16    17   ar
    31    16    39    1
    32    17    18    1
    33    17    25   ar
    34    18    19    2
    35    18    20    2
    36    18    21   am
    37    21    22    1
    38    21    40    1
    39    22    24    1
    40    22    23    1
    41    22    41    1
    42    23    24    1
    43    23    42    1
    44    23    43    1
    45    24    44    1
    46    24    45    1
    47    25    26   ar
    48    25    46    1
    49    26    47    1
    50    27    48    1
    51    27    49    1
@<TRIPOS>SUBSTRUCTURE
     1 ZINC000867639366        1 TEMP              0 ****  ****    0 ROOT


##########                                Name:    ZINC001135312623
##########                DOCK_Rotatable_Bonds:                   3
##########                         Heavy_Atoms:                  25
##########                    Molecular_Weight:             341.323
##########                DOCK_Rotatable_Bonds:                   3
##########                       Formal_Charge:        -1.78814e-07
##########                     HBond_Acceptors:                   8
##########                        HBond_Donors:                   2
##########                         Heavy_Atoms:                  25
##########                          Grid_Score:          -28.285172
##########                     Grid_vdw_energy:          -27.833580
##########                      Grid_es_energy:           -0.451591
##########           Internal_energy_repulsive:            6.114543

@<TRIPOS>MOLECULE
ZINC001135312623
 40 42 1 0 0
SMALL
USER_CHARGES


@<TRIPOS>ATOM
      1 C1        -13.3354    0.0595   53.0736 C.3     1  ZINC001135312623   -0.1300
      2 C2        -13.5136   -0.6792   54.3749 C.ar    1  ZINC001135312623   -0.0600
      3 C3        -14.6947   -1.3455   54.6353 C.ar    1  ZINC001135312623   -0.1000
      4 C4        -14.8594   -2.0233   55.8296 C.ar    1  ZINC001135312623   -0.0300
      5 C5        -16.1497   -2.7494   56.1104 C.3     1  ZINC001135312623   -0.1300
      6 C6        -13.8424   -2.0368   56.7662 C.ar    1  ZINC001135312623   -0.0200
      7 N7        -14.0228   -2.7635   58.0430 N.pl3   1  ZINC001135312623    0.0200
      8 O8        -13.5361   -2.3225   59.0688 O.2     1  ZINC001135312623   -0.1500
      9 O9        -14.6580   -3.8024   58.0679 O.2     1  ZINC001135312623   -0.1500
     10 C10       -12.6581   -1.3731   56.5116 C.ar    1  ZINC001135312623   -0.0700
     11 C11       -12.4877   -0.6955   55.3114 C.ar    1  ZINC001135312623    0.1500
     12 N12       -11.2899   -0.0226   55.0504 N.am    1  ZINC001135312623   -0.6600
     13 C13       -10.3630   -0.5832   54.2484 C.2     1  ZINC001135312623    0.5600
     14 O14       -10.5682   -1.6741   53.7520 O.2     1  ZINC001135312623   -0.5000
     15 C15        -9.0991    0.1267   53.9729 C.ar    1  ZINC001135312623   -0.1600
     16 C16        -8.7800    1.2882   54.6815 C.ar    1  ZINC001135312623   -0.0400
     17 C17        -7.6002    1.9510   54.4234 C.ar    1  ZINC001135312623   -0.1500
     18 C18        -6.7281    1.4633   53.4586 C.ar    1  ZINC001135312623    0.2000
     19 N19        -5.5298    2.1207   53.1792 N.am    1  ZINC001135312623   -0.6700
     20 C20        -4.8568    1.8294   52.0480 C.2     1  ZINC001135312623    0.6600
     21 O21        -3.8008    2.3849   51.8181 O.2     1  ZINC001135312623   -0.4900
     22 O22        -5.3397    0.9311   51.1709 O.3     1  ZINC001135312623   -0.3400
     23 C23        -6.0745   -0.2011   51.7117 C.3     1  ZINC001135312623    0.1100
     24 C24        -7.0435    0.3039   52.7515 C.ar    1  ZINC001135312623   -0.1800
     25 C25        -8.2157   -0.3649   53.0061 C.ar    1  ZINC001135312623    0.0000
     26 H26       -12.9121   -0.6139   52.3284 H       1  ZINC001135312623    0.0900
     27 H27       -14.3026    0.4233   52.7268 H       1  ZINC001135312623    0.0800
     28 H28       -12.6625    0.9037   53.2243 H       1  ZINC001135312623    0.0700
     29 H29       -15.4910   -1.3369   53.9058 H       1  ZINC001135312623    0.1500
     30 H30       -16.1076   -3.7473   55.6740 H       1  ZINC001135312623    0.0900
     31 H31       -16.2944   -2.8296   57.1877 H       1  ZINC001135312623    0.0800
     32 H32       -16.9806   -2.1962   55.6725 H       1  ZINC001135312623    0.0800
     33 H33       -11.8641   -1.3840   57.2436 H       1  ZINC001135312623    0.1700
     34 H34       -11.1261    0.8475   55.4464 H       1  ZINC001135312623    0.4200
     35 H35        -9.4587    1.6666   55.4317 H       1  ZINC001135312623    0.1400
     36 H36        -7.3537    2.8489   54.9704 H       1  ZINC001135312623    0.1500
     37 H37        -5.1828    2.7842   53.7957 H       1  ZINC001135312623    0.4300
     38 H38        -6.6230   -0.6972   50.9109 H       1  ZINC001135312623    0.1300
     39 H39        -5.3784   -0.9032   52.1707 H       1  ZINC001135312623    0.1000
     40 H40        -8.4563   -1.2647   52.4593 H       1  ZINC001135312623    0.1500
@<TRIPOS>BOND
     1     1     2    1
     2     1    26    1
     3     1    27    1
     4     1    28    1
     5     2    11   ar
     6     2     3   ar
     7     3     4   ar
     8     3    29    1
     9     4     5    1
    10     4     6   ar
    11     5    30    1
    12     5    31    1
    13     5    32    1
    14     6     7    1
    15     6    10   ar
    16     7     8    2
    17     7     9    2
    18    10    11   ar
    19    10    33    1
    20    11    12    1
    21    12    13   am
    22    12    34    1
    23    13    14    2
    24    13    15    1
    25    15    25   ar
    26    15    16   ar
    27    16    17   ar
    28    16    35    1
    29    17    18   ar
    30    17    36    1
    31    18    24   ar
    32    18    19    1
    33    19    20   am
    34    19    37    1
    35    20    21    2
    36    20    22    1
    37    22    23    1
    38    23    24    1
    39    23    38    1
    40    23    39    1
    41    24    25   ar
    42    25    40    1
@<TRIPOS>SUBSTRUCTURE
     1 ZINC001135312623        1 TEMP              0 ****  ****    0 ROOT


##########                                Name:    ZINC000281257088
##########                DOCK_Rotatable_Bonds:                   8
##########                         Heavy_Atoms:                  27
##########                    Molecular_Weight:             395.541
##########                DOCK_Rotatable_Bonds:                   8
##########                       Formal_Charge:          -0.0200005
##########                     HBond_Acceptors:                   7
##########                        HBond_Donors:                   1
##########                         Heavy_Atoms:                  27
##########                          Grid_Score:          -28.265537
##########                     Grid_vdw_energy:          -27.799479
##########                      Grid_es_energy:           -0.466058
##########           Internal_energy_repulsive:           24.369528

@<TRIPOS>MOLECULE
ZINC000281257088
 57 58 1 0 0
SMALL
USER_CHARGES


@<TRIPOS>ATOM
      1 C1        -10.6557    1.4357   53.6333 C.3     1  ZINC000281257088   -0.0700
      2 C2         -9.3309    1.8956   54.1848 C.2     1  ZINC000281257088    0.1000
      3 N3         -8.2559    2.1526   53.4846 N.2     1  ZINC000281257088   -0.3000
      4 N4         -7.2436    2.5512   54.3671 N.pl3   1  ZINC000281257088   -0.3700
      5 C5         -5.8778    2.9306   53.9971 C.3     1  ZINC000281257088    0.1500
      6 C6         -5.8088    3.1814   52.4894 C.3     1  ZINC000281257088   -0.6400
      7 S7         -5.1408    1.7118   51.6620 S.o2    1  ZINC000281257088    2.4300
      8 C8         -3.3620    2.0667   51.6461 C.3     1  ZINC000281257088   -0.6500
      9 O9         -5.3695    0.5815   52.4922 O.2     1  ZINC000281257088   -0.9300
     10 O10        -5.6109    1.6942   50.3211 O.2     1  ZINC000281257088   -0.9300
     11 C11        -7.7488    2.5240   55.6181 C.2     1  ZINC000281257088    0.0900
     12 C12        -7.0095    2.8781   56.8827 C.3     1  ZINC000281257088   -0.1000
     13 C13        -9.0397    2.1272   55.5331 C.2     1  ZINC000281257088   -0.2300
     14 C14        -9.9927    1.9566   56.6880 C.3     1  ZINC000281257088    0.1400
     15 N15       -10.1571    0.5264   56.9800 N.3     1  ZINC000281257088   -0.6700
     16 C16       -10.9752    0.3253   58.1834 C.3     1  ZINC000281257088    0.1400
     17 H17       -11.7250    1.1138   58.2489 H       1  ZINC000281257088    0.0500
     18 C18       -10.0925    0.3690   59.4041 C.ar    1  ZINC000281257088   -0.0800
     19 C19       -10.5990    0.8257   60.6066 C.ar    1  ZINC000281257088   -0.0600
     20 C20        -9.7905    0.8662   61.7268 C.ar    1  ZINC000281257088   -0.1600
     21 C21        -8.4730    0.4488   61.6443 C.ar    1  ZINC000281257088    0.1000
     22 F22        -7.6818    0.4874   62.7387 F       1  ZINC000281257088   -0.1400
     23 C23        -7.9670   -0.0089   60.4395 C.ar    1  ZINC000281257088   -0.1600
     24 C24        -8.7787   -0.0530   59.3219 C.ar    1  ZINC000281257088   -0.0900
     25 C25       -11.6710   -1.0351   58.1057 C.3     1  ZINC000281257088   -0.0600
     26 C26       -10.6390   -2.1476   58.3002 C.3     1  ZINC000281257088   -0.1400
     27 C27       -12.7338   -1.1277   59.2025 C.3     1  ZINC000281257088   -0.1400
     28 C28       -12.3362   -1.1902   56.7366 C.3     1  ZINC000281257088   -0.1500
     29 H29       -11.2714    2.3032   53.3962 H       1  ZINC000281257088    0.0800
     30 H30       -10.4893    0.8501   52.7291 H       1  ZINC000281257088    0.0700
     31 H31       -11.1646    0.8208   54.3757 H       1  ZINC000281257088    0.0800
     32 H32        -5.5962    3.8389   54.5297 H       1  ZINC000281257088    0.1100
     33 H33        -5.1925    2.1259   54.2634 H       1  ZINC000281257088    0.1100
     34 H34        -6.8091    3.3890   52.1095 H       1  ZINC000281257088    0.1400
     35 H35        -5.1608    4.0354   52.2923 H       1  ZINC000281257088    0.1400
     36 H36        -3.0051    2.1806   52.6697 H       1  ZINC000281257088    0.1300
     37 H37        -2.8316    1.2444   51.1658 H       1  ZINC000281257088    0.1300
     38 H38        -3.1803    2.9884   51.0934 H       1  ZINC000281257088    0.1300
     39 H39        -7.1295    3.9418   57.0881 H       1  ZINC000281257088    0.0800
     40 H40        -7.4134    2.2998   57.7137 H       1  ZINC000281257088    0.0900
     41 H41        -5.9509    2.6487   56.7610 H       1  ZINC000281257088    0.0700
     42 H42        -9.5931    2.4632   57.5666 H       1  ZINC000281257088    0.0800
     43 H43       -10.9594    2.3879   56.4283 H       1  ZINC000281257088    0.0300
     44 H44       -10.5510    0.0388   56.1893 H       1  ZINC000281257088    0.3400
     45 H45       -11.6268    1.1512   60.6707 H       1  ZINC000281257088    0.1400
     46 H46       -10.1863    1.2237   62.6659 H       1  ZINC000281257088    0.1300
     47 H47        -6.9393   -0.3344   60.3740 H       1  ZINC000281257088    0.1300
     48 H48        -8.3843   -0.4102   58.3821 H       1  ZINC000281257088    0.1300
     49 H49       -10.1651   -2.0371   59.2756 H       1  ZINC000281257088    0.0600
     50 H50       -11.1347   -3.1168   58.2449 H       1  ZINC000281257088    0.0500
     51 H51        -9.8819   -2.0816   57.5189 H       1  ZINC000281257088    0.0600
     52 H52       -13.4690   -0.3351   59.0638 H       1  ZINC000281257088    0.0500
     53 H53       -13.2295   -2.0969   59.1470 H       1  ZINC000281257088    0.0600
     54 H54       -12.2599   -1.0172   60.1778 H       1  ZINC000281257088    0.0600
     55 H55       -11.5712   -1.2022   55.9603 H       1  ZINC000281257088    0.0500
     56 H56       -12.8968   -2.1246   56.7088 H       1  ZINC000281257088    0.0600
     57 H57       -13.0145   -0.3542   56.5654 H       1  ZINC000281257088    0.0600
@<TRIPOS>BOND
     1     1     2    1
     2     1    29    1
     3     1    30    1
     4     1    31    1
     5     2    13    1
     6     2     3    2
     7     3     4    1
     8     4     5    1
     9     4    11    1
    10     5     6    1
    11     5    32    1
    12     5    33    1
    13     6     7    1
    14     6    34    1
    15     6    35    1
    16     7     8    1
    17     7     9    2
    18     7    10    2
    19     8    36    1
    20     8    37    1
    21     8    38    1
    22    11    12    1
    23    11    13    2
    24    12    39    1
    25    12    40    1
    26    12    41    1
    27    13    14    1
    28    14    15    1
    29    14    42    1
    30    14    43    1
    31    15    16    1
    32    15    44    1
    33    16    17    1
    34    16    18    1
    35    16    25    1
    36    18    24   ar
    37    18    19   ar
    38    19    20   ar
    39    19    45    1
    40    20    21   ar
    41    20    46    1
    42    21    22    1
    43    21    23   ar
    44    23    24   ar
    45    23    47    1
    46    24    48    1
    47    25    26    1
    48    25    27    1
    49    25    28    1
    50    26    49    1
    51    26    50    1
    52    26    51    1
    53    27    52    1
    54    27    53    1
    55    27    54    1
    56    28    55    1
    57    28    56    1
    58    28    57    1
@<TRIPOS>SUBSTRUCTURE
     1 ZINC000281257088        1 TEMP              0 ****  ****    0 ROOT


##########                                Name:    ZINC000331626032
##########                DOCK_Rotatable_Bonds:                   5
##########                         Heavy_Atoms:                  25
##########                    Molecular_Weight:              339.44
##########                DOCK_Rotatable_Bonds:                   5
##########                       Formal_Charge:        -2.16067e-07
##########                     HBond_Acceptors:                   6
##########                        HBond_Donors:                   2
##########                         Heavy_Atoms:                  25
##########                          Grid_Score:          -28.264015
##########                     Grid_vdw_energy:          -29.890036
##########                      Grid_es_energy:            1.626021
##########           Internal_energy_repulsive:           29.115461

@<TRIPOS>MOLECULE
ZINC000331626032
 50 52 1 0 0
SMALL
USER_CHARGES


@<TRIPOS>ATOM
      1 C1         -8.5754    1.1649   55.6694 C.3     1  ZINC000331626032   -0.2000
      2 C2         -8.9837    0.6360   54.2929 C.3     1  ZINC000331626032    0.0700
      3 H3         -8.5335   -0.3436   54.1320 H       1  ZINC000331626032    0.1100
      4 C4        -10.4844    0.5162   54.2257 C.2     1  ZINC000331626032    0.5200
      5 O5        -11.1829    1.2939   54.8409 O.2     1  ZINC000331626032   -0.5000
      6 N6        -11.0503   -0.4548   53.4820 N.am    1  ZINC000331626032   -0.5800
      7 C7        -10.2066   -1.3941   52.7390 C.3     1  ZINC000331626032    0.0800
      8 C8        -12.4438   -0.5659   53.4196 C.ar    1  ZINC000331626032    0.1400
      9 C9        -13.1856   -0.6816   54.5880 C.ar    1  ZINC000331626032   -0.1000
     10 C10       -14.5608   -0.7910   54.5230 C.ar    1  ZINC000331626032   -0.1100
     11 C11       -15.1991   -0.7861   53.2964 C.ar    1  ZINC000331626032   -0.1200
     12 C12       -14.4633   -0.6715   52.1312 C.ar    1  ZINC000331626032   -0.1100
     13 C13       -13.0884   -0.5549   52.1897 C.ar    1  ZINC000331626032   -0.1200
     14 N14        -8.5194    1.5649   53.2539 N.3     1  ZINC000331626032   -0.5100
     15 C15        -9.1825    2.8691   53.3797 C.3     1  ZINC000331626032    0.0500
     16 C16        -8.7863    3.7600   52.2002 C.3     1  ZINC000331626032   -0.1100
     17 C17        -7.2656    3.9387   52.1899 C.3     1  ZINC000331626032   -0.1100
     18 C18        -6.5987    2.5628   52.1072 C.3     1  ZINC000331626032   -0.0400
     19 H19        -6.8820    2.0766   51.1736 H       1  ZINC000331626032    0.1000
     20 C20        -5.1012    2.7258   52.1551 C.ar    1  ZINC000331626032    0.2300
     21 C21        -4.5205    3.6107   53.0497 C.ar    1  ZINC000331626032   -0.2900
     22 C22        -3.1394    3.7305   53.0613 C.ar    1  ZINC000331626032    0.1900
     23 N23        -2.4215    3.0013   52.2233 N.ar    1  ZINC000331626032   -0.5700
     24 C24        -3.0082    2.1642   51.3802 C.ar    1  ZINC000331626032    0.5700
     25 N25        -2.2263    1.4160   50.5173 N.pl3   1  ZINC000331626032   -0.8200
     26 N26        -4.3250    2.0221   51.3475 N.ar    1  ZINC000331626032   -0.5700
     27 C27        -7.0582    1.7065   53.2893 C.3     1  ZINC000331626032    0.0700
     28 H28        -9.0256    2.1445   55.8302 H       1  ZINC000331626032    0.0700
     29 H29        -8.9199    0.4757   56.4403 H       1  ZINC000331626032    0.0800
     30 H30        -7.4899    1.2515   55.7180 H       1  ZINC000331626032    0.0700
     31 H31        -9.9835   -2.2569   53.3666 H       1  ZINC000331626032    0.0600
     32 H32       -10.7317   -1.7232   51.8422 H       1  ZINC000331626032    0.0800
     33 H33        -9.2768   -0.9011   52.4553 H       1  ZINC000331626032    0.0800
     34 H34       -12.6875   -0.6862   55.5463 H       1  ZINC000331626032    0.1200
     35 H35       -15.1382   -0.8811   55.4313 H       1  ZINC000331626032    0.1300
     36 H36       -16.2747   -0.8721   53.2483 H       1  ZINC000331626032    0.1300
     37 H37       -14.9648   -0.6686   51.1746 H       1  ZINC000331626032    0.1300
     38 H38       -12.5143   -0.4655   51.2793 H       1  ZINC000331626032    0.1200
     39 H39       -10.2634    2.7284   53.3814 H       1  ZINC000331626032    0.0900
     40 H40        -8.8767    3.3436   54.3121 H       1  ZINC000331626032    0.0300
     41 H41        -9.1041    3.2928   51.2682 H       1  ZINC000331626032    0.0800
     42 H42        -9.2663    4.7334   52.3020 H       1  ZINC000331626032    0.0700
     43 H43        -6.9748    4.5369   51.3265 H       1  ZINC000331626032    0.0700
     44 H44        -6.9516    4.4411   53.1049 H       1  ZINC000331626032    0.0700
     45 H45        -5.1306    4.1945   53.7231 H       1  ZINC000331626032    0.1400
     46 H46        -2.6556    4.4113   53.7460 H       1  ZINC000331626032    0.1700
     47 H47        -1.2609    1.5078   50.5345 H       1  ZINC000331626032    0.4100
     48 H48        -2.6439    0.7998   49.8954 H       1  ZINC000331626032    0.4100
     49 H49        -6.7624    2.1865   54.2222 H       1  ZINC000331626032    0.0400
     50 H50        -6.5962    0.7213   53.2255 H       1  ZINC000331626032    0.0800
@<TRIPOS>BOND
     1     1     2    1
     2     1    28    1
     3     1    29    1
     4     1    30    1
     5     2     3    1
     6     2     4    1
     7     2    14    1
     8     4     5    2
     9     4     6   am
    10     6     7    1
    11     6     8    1
    12     7    31    1
    13     7    32    1
    14     7    33    1
    15     8    13   ar
    16     8     9   ar
    17     9    10   ar
    18     9    34    1
    19    10    11   ar
    20    10    35    1
    21    11    12   ar
    22    11    36    1
    23    12    13   ar
    24    12    37    1
    25    13    38    1
    26    14    27    1
    27    14    15    1
    28    15    16    1
    29    15    39    1
    30    15    40    1
    31    16    17    1
    32    16    41    1
    33    16    42    1
    34    17    18    1
    35    17    43    1
    36    17    44    1
    37    18    19    1
    38    18    20    1
    39    18    27    1
    40    20    26   ar
    41    20    21   ar
    42    21    22   ar
    43    21    45    1
    44    22    23   ar
    45    22    46    1
    46    23    24   ar
    47    24    25    1
    48    24    26   ar
    49    25    47    1
    50    25    48    1
    51    27    49    1
    52    27    50    1
@<TRIPOS>SUBSTRUCTURE
     1 ZINC000331626032        1 TEMP              0 ****  ****    0 ROOT


##########                                Name:    ZINC000420486261
##########                DOCK_Rotatable_Bonds:                   7
##########                         Heavy_Atoms:                  26
##########                    Molecular_Weight:             353.378
##########                DOCK_Rotatable_Bonds:                   7
##########                       Formal_Charge:        -2.98023e-08
##########                     HBond_Acceptors:                   7
##########                        HBond_Donors:                   0
##########                         Heavy_Atoms:                  26
##########                          Grid_Score:          -28.263863
##########                     Grid_vdw_energy:          -26.924721
##########                      Grid_es_energy:           -1.339142
##########           Internal_energy_repulsive:            8.727926

@<TRIPOS>MOLECULE
ZINC000420486261
 45 47 1 0 0
SMALL
USER_CHARGES


@<TRIPOS>ATOM
      1 C1          1.4733    6.0916   40.4603 C.3     1  ZINC000420486261    0.0400
      2 O2          1.5717    4.8491   41.2054 O.3     1  ZINC000420486261   -0.3500
      3 C3          0.7144    3.8660   40.8705 C.2     1  ZINC000420486261    0.5100
      4 O4         -0.0938    4.0418   39.9815 O.2     1  ZINC000420486261   -0.4900
      5 C5          0.7574    2.5708   41.5865 C.ar    1  ZINC000420486261   -0.0700
      6 C6          0.0797    1.4527   41.0892 C.ar    1  ZINC000420486261   -0.0900
      7 C7          0.1438    0.2588   41.7864 C.ar    1  ZINC000420486261    0.1100
      8 N8          0.8295    0.1622   42.9048 N.ar    1  ZINC000420486261   -0.4200
      9 C9          1.4886    1.1947   43.4159 C.ar    1  ZINC000420486261    0.1900
     10 C10         2.2445    1.0292   44.6775 C.2     1  ZINC000420486261    0.2200
     11 N11         2.4329   -0.0964   45.3382 N.2     1  ZINC000420486261   -0.4300
     12 C12         3.1743    0.2370   46.4156 C.2     1  ZINC000420486261    0.2200
     13 C13         3.6522   -0.6867   47.4733 C.ar    1  ZINC000420486261   -0.0600
     14 C14         3.8626   -2.0327   47.1839 C.ar    1  ZINC000420486261   -0.0300
     15 C15         4.3073   -2.8881   48.1714 C.ar    1  ZINC000420486261   -0.1600
     16 C16         4.5453   -2.4137   49.4493 C.ar    1  ZINC000420486261   -0.0600
     17 C17         4.3398   -1.0802   49.7476 C.ar    1  ZINC000420486261   -0.2200
     18 C18         3.8990   -0.2087   48.7642 C.ar    1  ZINC000420486261    0.1700
     19 O19         3.6968    1.1021   49.0559 O.3     1  ZINC000420486261   -0.2900
     20 C20         3.0001    1.3969   50.2682 C.3     1  ZINC000420486261    0.0600
     21 C21         2.2672    2.7321   50.1233 C.3     1  ZINC000420486261   -0.0900
     22 C22         1.3646    2.9530   51.3388 C.3     1  ZINC000420486261   -0.1500
     23 C23         3.2889    3.8676   50.0338 C.3     1  ZINC000420486261   -0.1500
     24 N24         3.3941    1.5259   46.3545 N.2     1  ZINC000420486261   -0.3400
     25 O25         2.8740    1.9949   45.3643 O.3     1  ZINC000420486261    0.1000
     26 C26         1.4807    2.4313   42.7738 C.ar    1  ZINC000420486261   -0.0700
     27 H27         2.2183    6.7965   40.8293 H       1  ZINC000420486261    0.1100
     28 H28         1.6505    5.8961   39.4027 H       1  ZINC000420486261    0.0700
     29 H29         0.4772    6.5149   40.5897 H       1  ZINC000420486261    0.0700
     30 H30        -0.4871    1.5202   40.1723 H       1  ZINC000420486261    0.1600
     31 H31        -0.3778   -0.6072   41.4065 H       1  ZINC000420486261    0.1800
     32 H32         3.6776   -2.4067   46.1877 H       1  ZINC000420486261    0.1400
     33 H33         4.4698   -3.9318   47.9461 H       1  ZINC000420486261    0.1300
     34 H34         4.8928   -3.0888   50.2173 H       1  ZINC000420486261    0.1300
     35 H35         4.5273   -0.7157   50.7468 H       1  ZINC000420486261    0.1400
     36 H36         2.2782    0.6066   50.4737 H       1  ZINC000420486261    0.0600
     37 H37         3.7128    1.4609   51.0904 H       1  ZINC000420486261    0.0600
     38 H38         1.6604    2.7172   49.2180 H       1  ZINC000420486261    0.0800
     39 H39         1.9714    2.9679   52.2441 H       1  ZINC000420486261    0.0600
     40 H40         0.8424    3.9041   51.2356 H       1  ZINC000420486261    0.0700
     41 H41         0.6367    2.1440   51.4026 H       1  ZINC000420486261    0.0600
     42 H42         3.8957    3.8825   50.9391 H       1  ZINC000420486261    0.0500
     43 H43         3.9319    3.7102   49.1679 H       1  ZINC000420486261    0.0600
     44 H44         2.7668    4.8189   49.9306 H       1  ZINC000420486261    0.0600
     45 H45         2.0180    3.2701   43.1912 H       1  ZINC000420486261    0.1600
@<TRIPOS>BOND
     1     1     2    1
     2     1    27    1
     3     1    28    1
     4     1    29    1
     5     2     3    1
     6     3     4    2
     7     3     5    1
     8     5    26   ar
     9     5     6   ar
    10     6     7   ar
    11     6    30    1
    12     7     8   ar
    13     7    31    1
    14     8     9   ar
    15     9    10    1
    16     9    26   ar
    17    10    25    1
    18    10    11    2
    19    11    12    1
    20    12    13    1
    21    12    24    2
    22    13    18   ar
    23    13    14   ar
    24    14    15   ar
    25    14    32    1
    26    15    16   ar
    27    15    33    1
    28    16    17   ar
    29    16    34    1
    30    17    18   ar
    31    17    35    1
    32    18    19    1
    33    19    20    1
    34    20    21    1
    35    20    36    1
    36    20    37    1
    37    21    22    1
    38    21    23    1
    39    21    38    1
    40    22    39    1
    41    22    40    1
    42    22    41    1
    43    23    42    1
    44    23    43    1
    45    23    44    1
    46    24    25    1
    47    26    45    1
@<TRIPOS>SUBSTRUCTURE
     1 ZINC000420486261        1 TEMP              0 ****  ****    0 ROOT


##########                                Name:    ZINC000191003171
##########                DOCK_Rotatable_Bonds:                   6
##########                         Heavy_Atoms:                  26
##########                    Molecular_Weight:             389.414
##########                DOCK_Rotatable_Bonds:                   6
##########                       Formal_Charge:          -0.0200002
##########                     HBond_Acceptors:                   8
##########                        HBond_Donors:                   1
##########                         Heavy_Atoms:                  26
##########                          Grid_Score:          -28.251156
##########                     Grid_vdw_energy:          -28.035152
##########                      Grid_es_energy:           -0.216004
##########           Internal_energy_repulsive:           17.173792

@<TRIPOS>MOLECULE
ZINC000191003171
 45 46 1 0 0
SMALL
USER_CHARGES


@<TRIPOS>ATOM
      1 C1        -11.3344   -4.0299   57.1755 C.3     1  ZINC000191003171   -0.1200
      2 C2        -11.7589   -2.6234   57.5115 C.ar    1  ZINC000191003171   -0.0800
      3 C3        -12.8873   -2.4071   58.2797 C.ar    1  ZINC000191003171   -0.0700
      4 C4        -13.2768   -1.1168   58.5880 C.ar    1  ZINC000191003171   -0.1800
      5 C5        -14.5073   -0.8809   59.4253 C.3     1  ZINC000191003171    0.5100
      6 F6        -14.6872   -1.9553   60.3030 F       1  ZINC000191003171   -0.1800
      7 F7        -14.3526    0.3000   60.1592 F       1  ZINC000191003171   -0.1800
      8 F8        -15.6247   -0.7683   58.5907 F       1  ZINC000191003171   -0.1800
      9 C9        -12.5373   -0.0433   58.1286 C.ar    1  ZINC000191003171   -0.0800
     10 C10       -11.4083   -0.2597   57.3604 C.ar    1  ZINC000191003171   -0.1000
     11 C11       -11.0165   -1.5498   57.0559 C.ar    1  ZINC000191003171   -0.0500
     12 C12        -9.7859   -1.7857   56.2186 C.3     1  ZINC000191003171    0.0900
     13 N13       -10.1794   -2.0022   54.8200 N.3     1  ZINC000191003171   -0.6800
     14 C14       -10.6714   -0.7583   54.2128 C.3     1  ZINC000191003171    0.1200
     15 H15       -11.2708   -0.2111   54.9405 H       1  ZINC000191003171    0.0600
     16 C16       -11.5310   -1.0920   52.9918 C.3     1  ZINC000191003171   -0.1400
     17 C17        -9.5011    0.0900   53.7866 C.ar    1  ZINC000191003171   -0.0100
     18 C18        -8.4130   -0.4953   53.1669 C.ar    1  ZINC000191003171   -0.1300
     19 C19        -7.3385    0.2817   52.7753 C.ar    1  ZINC000191003171    0.0100
     20 C20        -7.3512    1.6445   53.0032 C.ar    1  ZINC000191003171   -0.7000
     21 S21        -5.9817    2.6344   52.5039 S.o2    1  ZINC000191003171    2.5000
     22 C22        -4.8863    1.4832   51.6288 C.3     1  ZINC000191003171   -0.6500
     23 O23        -6.5414    3.5758   51.5986 O.2     1  ZINC000191003171   -0.9300
     24 O24        -5.3896    3.0550   53.7252 O.2     1  ZINC000191003171   -0.9300
     25 C25        -8.4410    2.2321   53.6234 C.ar    1  ZINC000191003171    0.1900
     26 F26        -8.4546    3.5645   53.8467 F       1  ZINC000191003171   -0.1200
     27 C27        -9.5185    1.4538   54.0104 C.ar    1  ZINC000191003171   -0.1700
     28 H28       -10.6617   -4.4008   57.9487 H       1  ZINC000191003171    0.0800
     29 H29       -12.2138   -4.6716   57.1206 H       1  ZINC000191003171    0.0800
     30 H30       -10.8206   -4.0344   56.2141 H       1  ZINC000191003171    0.0600
     31 H31       -13.4649   -3.2459   58.6390 H       1  ZINC000191003171    0.1400
     32 H32       -12.8415    0.9645   58.3692 H       1  ZINC000191003171    0.1400
     33 H33       -10.8306    0.5791   57.0012 H       1  ZINC000191003171    0.1400
     34 H34        -9.1315   -0.9164   56.2815 H       1  ZINC000191003171    0.0900
     35 H35        -9.2583   -2.6651   56.5879 H       1  ZINC000191003171    0.0500
     36 H36        -9.4158   -2.3882   54.2851 H       1  ZINC000191003171    0.3500
     37 H37       -11.8962   -0.1690   52.5414 H       1  ZINC000191003171    0.0600
     38 H38       -10.9315   -1.6391   52.2641 H       1  ZINC000191003171    0.0700
     39 H39       -12.3775   -1.7055   53.3002 H       1  ZINC000191003171    0.0600
     40 H40        -8.4020   -1.5604   52.9888 H       1  ZINC000191003171    0.1500
     41 H41        -6.4887   -0.1767   52.2915 H       1  ZINC000191003171    0.1600
     42 H42        -5.4138    1.0579   50.7749 H       1  ZINC000191003171    0.1300
     43 H43        -4.0020    2.0169   51.2805 H       1  ZINC000191003171    0.1400
     44 H44        -4.5851    0.6832   52.3051 H       1  ZINC000191003171    0.1300
     45 H45       -10.3692    1.9111   54.4939 H       1  ZINC000191003171    0.1500
@<TRIPOS>BOND
     1     1     2    1
     2     1    28    1
     3     1    29    1
     4     1    30    1
     5     2    11   ar
     6     2     3   ar
     7     3     4   ar
     8     3    31    1
     9     4     5    1
    10     4     9   ar
    11     5     6    1
    12     5     7    1
    13     5     8    1
    14     9    10   ar
    15     9    32    1
    16    10    11   ar
    17    10    33    1
    18    11    12    1
    19    12    13    1
    20    12    34    1
    21    12    35    1
    22    13    14    1
    23    13    36    1
    24    14    15    1
    25    14    16    1
    26    14    17    1
    27    16    37    1
    28    16    38    1
    29    16    39    1
    30    17    27   ar
    31    17    18   ar
    32    18    19   ar
    33    18    40    1
    34    19    20   ar
    35    19    41    1
    36    20    21    1
    37    20    25   ar
    38    21    22    1
    39    21    23    2
    40    21    24    2
    41    22    42    1
    42    22    43    1
    43    22    44    1
    44    25    26    1
    45    25    27   ar
    46    27    45    1
@<TRIPOS>SUBSTRUCTURE
     1 ZINC000191003171        1 TEMP              0 ****  ****    0 ROOT


##########                                Name:    ZINC000646817380
##########                DOCK_Rotatable_Bonds:                   6
##########                         Heavy_Atoms:                  25
##########                    Molecular_Weight:             347.457
##########                DOCK_Rotatable_Bonds:                   6
##########                       Formal_Charge:           0.0199991
##########                     HBond_Acceptors:                   6
##########                        HBond_Donors:                   1
##########                         Heavy_Atoms:                  25
##########                          Grid_Score:          -28.247658
##########                     Grid_vdw_energy:          -27.724367
##########                      Grid_es_energy:           -0.523290
##########           Internal_energy_repulsive:          192.709335

@<TRIPOS>MOLECULE
ZINC000646817380
 54 56 1 0 0
SMALL
USER_CHARGES


@<TRIPOS>ATOM
      1 C1         -5.7570    0.6068   52.4083 C.3     1  ZINC000646817380   -0.1500
      2 C2         -5.4532    1.7750   51.4681 C.3     1  ZINC000646817380   -0.0100
      3 C3         -6.1168    3.0457   52.0026 C.3     1  ZINC000646817380   -0.1500
      4 C4         -3.9625    1.9818   51.3891 C.2     1  ZINC000646817380   -0.0100
      5 C5         -3.2064    2.7367   52.2182 C.2     1  ZINC000646817380   -0.2200
      6 C6         -1.8886    2.5903   51.7083 C.2     1  ZINC000646817380    0.2400
      7 N7         -0.7272    3.1734   52.2116 N.am    1  ZINC000646817380   -0.6100
      8 C8          0.4669    2.8831   51.6583 C.2     1  ZINC000646817380    0.5200
      9 O9          0.5307    2.1150   50.7210 O.2     1  ZINC000646817380   -0.4900
     10 C10         1.7120    3.5067   52.1989 C.2     1  ZINC000646817380    0.5300
     11 O11         1.6494    4.2665   53.1431 O.2     1  ZINC000646817380   -0.5100
     12 N12         2.9049    3.2256   51.6380 N.am    1  ZINC000646817380   -0.5800
     13 C13         4.2025    3.7668   52.0678 C.3     1  ZINC000646817380    0.1000
     14 C14         5.2760    3.1886   51.1218 C.3     1  ZINC000646817380   -0.1300
     15 C15         4.4570    2.8011   49.8623 C.3     1  ZINC000646817380   -0.1000
     16 H16         4.2972    3.6662   49.2187 H       1  ZINC000646817380    0.1000
     17 C17         5.1377    1.6672   49.0930 C.3     1  ZINC000646817380   -0.0700
     18 H18         6.1438    1.9667   48.7997 H       1  ZINC000646817380    0.0800
     19 C19         5.1980    0.3974   49.9670 C.3     1  ZINC000646817380   -0.1300
     20 C20         4.9590   -0.7625   48.9687 C.3     1  ZINC000646817380   -0.1300
     21 C21         3.8968   -0.1730   48.0078 C.3     1  ZINC000646817380   -0.1200
     22 C22         4.3110    1.3054   47.8467 C.3     1  ZINC000646817380   -0.0700
     23 C23         3.0670    2.1925   47.7673 C.3     1  ZINC000646817380   -0.1600
     24 C24         5.1595    1.4774   46.5851 C.3     1  ZINC000646817380   -0.1400
     25 C25         3.1252    2.3198   50.4959 C.3     1  ZINC000646817380    0.0900
     26 N26        -1.9840    1.7986   50.6723 N.2     1  ZINC000646817380   -0.3800
     27 O27        -3.1265    1.4485   50.4866 O.3     1  ZINC000646817380    0.1100
     28 H28        -6.8351    0.4573   52.4654 H       1  ZINC000646817380    0.0700
     29 H29        -5.2842   -0.2985   52.0275 H       1  ZINC000646817380    0.0600
     30 H30        -5.3678    0.8294   53.4019 H       1  ZINC000646817380    0.0600
     31 H31        -5.8423    1.5524   50.4746 H       1  ZINC000646817380    0.1100
     32 H32        -5.7276    3.2684   52.9962 H       1  ZINC000646817380    0.0600
     33 H33        -5.9004    3.8779   51.3329 H       1  ZINC000646817380    0.0600
     34 H34        -7.1949    2.8961   52.0598 H       1  ZINC000646817380    0.0700
     35 H35        -3.5295    3.3165   53.0702 H       1  ZINC000646817380    0.1900
     36 H36        -0.7783    3.7883   52.9600 H       1  ZINC000646817380    0.4300
     37 H37         4.1926    4.8544   51.9967 H       1  ZINC000646817380    0.0800
     38 H38         4.4097    3.4622   53.0937 H       1  ZINC000646817380    0.0800
     39 H39         6.0230    3.9443   50.8786 H       1  ZINC000646817380    0.0900
     40 H40         5.7451    2.3090   51.5626 H       1  ZINC000646817380    0.0800
     41 H41         6.1780    0.3024   50.4347 H       1  ZINC000646817380    0.0700
     42 H42         4.4135    0.4173   50.7236 H       1  ZINC000646817380    0.0800
     43 H43         5.8755   -1.0039   48.4303 H       1  ZINC000646817380    0.0700
     44 H44         4.5693   -1.6409   49.4833 H       1  ZINC000646817380    0.0700
     45 H45         3.9273   -0.6843   47.0456 H       1  ZINC000646817380    0.0700
     46 H46         2.9022   -0.2452   48.4479 H       1  ZINC000646817380    0.0700
     47 H47         2.3102    1.8195   48.4574 H       1  ZINC000646817380    0.0700
     48 H48         3.3321    3.2149   48.0367 H       1  ZINC000646817380    0.0600
     49 H49         2.6726    2.1751   46.7513 H       1  ZINC000646817380    0.0500
     50 H50         4.5726    1.1948   45.7112 H       1  ZINC000646817380    0.0600
     51 H51         5.4682    2.5188   46.4942 H       1  ZINC000646817380    0.0500
     52 H52         6.0421    0.8413   46.6514 H       1  ZINC000646817380    0.0600
     53 H53         3.2177    1.2882   50.8355 H       1  ZINC000646817380    0.0900
     54 H54         2.3090    2.4125   49.7795 H       1  ZINC000646817380    0.1000
@<TRIPOS>BOND
     1     1     2    1
     2     1    28    1
     3     1    29    1
     4     1    30    1
     5     2     3    1
     6     2     4    1
     7     2    31    1
     8     3    32    1
     9     3    33    1
    10     3    34    1
    11     4    27    1
    12     4     5    2
    13     5     6    1
    14     5    35    1
    15     6     7    1
    16     6    26    2
    17     7     8   am
    18     7    36    1
    19     8     9    2
    20     8    10    1
    21    10    11    2
    22    10    12   am
    23    12    25    1
    24    12    13    1
    25    13    14    1
    26    13    37    1
    27    13    38    1
    28    14    15    1
    29    14    39    1
    30    14    40    1
    31    15    16    1
    32    15    17    1
    33    15    25    1
    34    17    18    1
    35    17    22    1
    36    17    19    1
    37    19    20    1
    38    19    41    1
    39    19    42    1
    40    20    21    1
    41    20    43    1
    42    20    44    1
    43    21    22    1
    44    21    45    1
    45    21    46    1
    46    22    23    1
    47    22    24    1
    48    23    47    1
    49    23    48    1
    50    23    49    1
    51    24    50    1
    52    24    51    1
    53    24    52    1
    54    25    53    1
    55    25    54    1
    56    26    27    1
@<TRIPOS>SUBSTRUCTURE
     1 ZINC000646817380        1 TEMP              0 ****  ****    0 ROOT


##########                                Name:    ZINC000654672208
##########                DOCK_Rotatable_Bonds:                   5
##########                         Heavy_Atoms:                  25
##########                    Molecular_Weight:             365.497
##########                DOCK_Rotatable_Bonds:                   5
##########                       Formal_Charge:           0.0100001
##########                     HBond_Acceptors:                   7
##########                        HBond_Donors:                   1
##########                         Heavy_Atoms:                  25
##########                          Grid_Score:          -28.241772
##########                     Grid_vdw_energy:          -27.330341
##########                      Grid_es_energy:           -0.911430
##########           Internal_energy_repulsive:           13.424161

@<TRIPOS>MOLECULE
ZINC000654672208
 52 54 1 0 0
SMALL
USER_CHARGES


@<TRIPOS>ATOM
      1 C1        -14.4934    1.7404   47.3672 C.3     1  ZINC000654672208   -0.1100
      2 C2        -14.1851    1.5024   48.8230 C.ar    1  ZINC000654672208   -0.1300
      3 C3        -13.1681    2.2002   49.4460 C.ar    1  ZINC000654672208    0.1000
      4 N4        -12.8928    1.9976   50.7198 N.ar    1  ZINC000654672208   -0.4700
      5 C5        -13.5693    1.1294   51.4458 C.ar    1  ZINC000654672208    0.1200
      6 C6        -13.2143    0.9358   52.8976 C.3     1  ZINC000654672208   -0.0900
      7 C7        -12.1491   -0.1555   53.0210 C.3     1  ZINC000654672208    0.1500
      8 N8        -11.8890   -0.4262   54.4370 N.am    1  ZINC000654672208   -0.7500
      9 C9        -10.9885   -1.3650   54.7893 C.2     1  ZINC000654672208    0.7100
     10 O10       -10.3921   -1.9874   53.9319 O.2     1  ZINC000654672208   -0.5800
     11 N11       -10.7492   -1.6141   56.0920 N.am    1  ZINC000654672208   -0.6300
     12 C12        -9.7704   -2.6345   56.4910 C.3     1  ZINC000654672208    0.1300
     13 C13       -10.4474   -3.6161   57.4526 C.3     1  ZINC000654672208   -0.1400
     14 C14       -11.0580   -2.8407   58.6216 C.3     1  ZINC000654672208   -0.1100
     15 C15       -12.1244   -1.8741   58.0927 C.3     1  ZINC000654672208   -0.0600
     16 C16       -12.7400   -1.1122   59.2709 C.3     1  ZINC000654672208   -0.1200
     17 C17       -14.2028   -0.7423   58.9143 C.3     1  ZINC000654672208   -0.5800
     18 S18       -14.7786   -2.2964   58.1190 S.o2    1  ZINC000654672208    2.3800
     19 O19       -15.0524   -3.2700   59.1172 O.2     1  ZINC000654672208   -0.9300
     20 O20       -15.7554   -1.9938   57.1324 O.2     1  ZINC000654672208   -0.9300
     21 C21       -13.1788   -2.6769   57.3115 C.3     1  ZINC000654672208   -0.5800
     22 C22       -11.4577   -0.8660   57.1388 C.3     1  ZINC000654672208    0.1200
     23 C23       -14.6006    0.3952   50.8909 C.ar    1  ZINC000654672208   -0.1200
     24 C24       -15.3689   -0.5947   51.7281 C.3     1  ZINC000654672208   -0.1200
     25 C25       -14.9223    0.5844   49.5558 C.ar    1  ZINC000654672208   -0.0800
     26 H26       -15.2303    2.5386   47.2776 H       1  ZINC000654672208    0.0700
     27 H27       -13.5809    2.0280   46.8449 H       1  ZINC000654672208    0.0700
     28 H28       -14.8919    0.8268   46.9262 H       1  ZINC000654672208    0.0700
     29 H29       -12.5918    2.9196   48.8832 H       1  ZINC000654672208    0.1600
     30 H30       -12.8264    1.8698   53.3044 H       1  ZINC000654672208    0.0900
     31 H31       -14.1041    0.6394   53.4529 H       1  ZINC000654672208    0.0900
     32 H32       -12.5032   -1.0653   52.5361 H       1  ZINC000654672208    0.0700
     33 H33       -11.2296    0.1782   52.5400 H       1  ZINC000654672208    0.0700
     34 H34       -12.3649    0.0703   55.1211 H       1  ZINC000654672208    0.3900
     35 H35        -9.4203   -3.1699   55.6085 H       1  ZINC000654672208    0.1000
     36 H36        -8.9272   -2.1569   56.9900 H       1  ZINC000654672208    0.0700
     37 H37       -11.2328   -4.1582   56.9259 H       1  ZINC000654672208    0.0700
     38 H38        -9.7085   -4.3226   57.8312 H       1  ZINC000654672208    0.0800
     39 H39       -11.5162   -3.5395   59.3214 H       1  ZINC000654672208    0.0800
     40 H40       -10.2768   -2.2764   59.1308 H       1  ZINC000654672208    0.0800
     41 H41       -12.7277   -1.7415   60.1608 H       1  ZINC000654672208    0.1000
     42 H42       -12.1677   -0.2038   59.4590 H       1  ZINC000654672208    0.1000
     43 H43       -14.7817   -0.5230   59.8114 H       1  ZINC000654672208    0.1400
     44 H44       -14.2366    0.0924   58.2141 H       1  ZINC000654672208    0.1400
     45 H45       -13.1979   -2.3601   56.2688 H       1  ZINC000654672208    0.1400
     46 H46       -12.9667   -3.7439   57.3787 H       1  ZINC000654672208    0.1400
     47 H47       -10.7531   -0.2476   57.6949 H       1  ZINC000654672208    0.0800
     48 H48       -12.2204   -0.2350   56.6826 H       1  ZINC000654672208    0.0800
     49 H49       -16.2201   -0.0955   52.1911 H       1  ZINC000654672208    0.0800
     50 H50       -15.7248   -1.4072   51.0946 H       1  ZINC000654672208    0.0700
     51 H51       -14.7177   -0.9973   52.5038 H       1  ZINC000654672208    0.0700
     52 H52       -15.7231    0.0248   49.0955 H       1  ZINC000654672208    0.1300
@<TRIPOS>BOND
     1     1     2    1
     2     1    26    1
     3     1    27    1
     4     1    28    1
     5     2    25   ar
     6     2     3   ar
     7     3     4   ar
     8     3    29    1
     9     4     5   ar
    10     5     6    1
    11     5    23   ar
    12     6     7    1
    13     6    30    1
    14     6    31    1
    15     7     8    1
    16     7    32    1
    17     7    33    1
    18     8     9   am
    19     8    34    1
    20     9    10    2
    21     9    11   am
    22    11    22    1
    23    11    12    1
    24    12    13    1
    25    12    35    1
    26    12    36    1
    27    13    14    1
    28    13    37    1
    29    13    38    1
    30    14    15    1
    31    14    39    1
    32    14    40    1
    33    15    21    1
    34    15    16    1
    35    15    22    1
    36    16    17    1
    37    16    41    1
    38    16    42    1
    39    17    18    1
    40    17    43    1
    41    17    44    1
    42    18    19    2
    43    18    20    2
    44    18    21    1
    45    21    45    1
    46    21    46    1
    47    22    47    1
    48    22    48    1
    49    23    24    1
    50    23    25   ar
    51    24    49    1
    52    24    50    1
    53    24    51    1
    54    25    52    1
@<TRIPOS>SUBSTRUCTURE
     1 ZINC000654672208        1 TEMP              0 ****  ****    0 ROOT


##########                                Name:    ZINC000441887161
##########                DOCK_Rotatable_Bonds:                   6
##########                         Heavy_Atoms:                  27
##########                    Molecular_Weight:             383.514
##########                DOCK_Rotatable_Bonds:                   6
##########                       Formal_Charge:          -0.0300002
##########                     HBond_Acceptors:                   6
##########                        HBond_Donors:                   1
##########                         Heavy_Atoms:                  27
##########                          Grid_Score:          -28.239393
##########                     Grid_vdw_energy:          -28.588106
##########                      Grid_es_energy:            0.348713
##########           Internal_energy_repulsive:           22.331148

@<TRIPOS>MOLECULE
ZINC000441887161
 52 54 1 0 0
SMALL
USER_CHARGES


@<TRIPOS>ATOM
      1 C1         -5.5088    1.8234   51.9494 C.3     1  ZINC000441887161   -0.1200
      2 C2         -6.6614    1.1484   52.6470 C.ar    1  ZINC000441887161   -0.0700
      3 C3         -7.0023   -0.1505   52.3197 C.ar    1  ZINC000441887161   -0.1200
      4 C4         -8.0597   -0.7698   52.9598 C.ar    1  ZINC000441887161   -0.0900
      5 C5         -8.7757   -0.0904   53.9272 C.ar    1  ZINC000441887161   -0.1100
      6 C6         -9.9286   -0.7653   54.6246 C.3     1  ZINC000441887161    0.1900
      7 H7        -10.2583   -0.1491   55.4612 H       1  ZINC000441887161    0.1000
      8 C8        -11.0845   -0.9478   53.6390 C.3     1  ZINC000441887161    0.1000
      9 N9        -11.7111    0.3501   53.3754 N.pl3   1  ZINC000441887161   -0.4600
     10 C10       -12.9427    0.7605   53.8093 C.2     1  ZINC000441887161   -0.0500
     11 C11       -13.1227    2.0114   53.3441 C.2     1  ZINC000441887161   -0.0200
     12 N12       -12.0309    2.3553   52.6452 N.2     1  ZINC000441887161   -0.4900
     13 C13       -11.1789    1.3670   52.6638 C.2     1  ZINC000441887161    0.1800
     14 N14        -9.4994   -2.0748   55.1219 N.am    1  ZINC000441887161   -1.1100
     15 S15        -9.7126   -2.4652   56.7171 S.o2    1  ZINC000441887161    2.6900
     16 O16        -9.3437   -3.8311   56.8486 O.2     1  ZINC000441887161   -0.9600
     17 O17        -9.1097   -1.4214   57.4696 O.2     1  ZINC000441887161   -0.9500
     18 C18       -11.4412   -2.3825   57.0478 C.ar    1  ZINC000441887161   -0.6800
     19 C19       -12.1717   -3.5456   57.2025 C.ar    1  ZINC000441887161   -0.0300
     20 C20       -13.5281   -3.4807   57.4618 C.ar    1  ZINC000441887161   -0.1300
     21 C21       -14.1537   -2.2528   57.5671 C.ar    1  ZINC000441887161   -0.0200
     22 C22       -15.6323   -2.1820   57.8493 C.3     1  ZINC000441887161   -0.1300
     23 C23       -13.4227   -1.0893   57.4136 C.ar    1  ZINC000441887161   -0.1000
     24 C24       -14.1047    0.2497   57.5287 C.3     1  ZINC000441887161   -0.1200
     25 C25       -12.0661   -1.1541   57.1581 C.ar    1  ZINC000441887161   -0.0100
     26 C26        -8.4338    1.2084   54.2556 C.ar    1  ZINC000441887161   -0.0700
     27 C27        -9.2141    1.9492   55.3108 C.3     1  ZINC000441887161   -0.1300
     28 C28        -7.3743    1.8263   53.6184 C.ar    1  ZINC000441887161   -0.1200
     29 H29        -4.5880    1.6318   52.5003 H       1  ZINC000441887161    0.0700
     30 H30        -5.4154    1.4294   50.9374 H       1  ZINC000441887161    0.0700
     31 H31        -5.6892    2.8976   51.9058 H       1  ZINC000441887161    0.0700
     32 H32        -6.4428   -0.6815   51.5637 H       1  ZINC000441887161    0.1200
     33 H33        -8.3265   -1.7845   52.7035 H       1  ZINC000441887161    0.1200
     34 H34       -10.7043   -1.3638   52.7060 H       1  ZINC000441887161    0.1100
     35 H35       -11.8222   -1.6273   54.0659 H       1  ZINC000441887161    0.1000
     36 H36       -13.6368    0.1905   54.4092 H       1  ZINC000441887161    0.1700
     37 H37       -13.9937    2.6292   53.5056 H       1  ZINC000441887161    0.1600
     38 H38       -10.2113    1.3609   52.1841 H       1  ZINC000441887161    0.2000
     39 H39        -9.0905   -2.7131   54.5168 H       1  ZINC000441887161    0.4200
     40 H40       -11.6829   -4.5051   57.1203 H       1  ZINC000441887161    0.1300
     41 H41       -14.0990   -4.3896   57.5820 H       1  ZINC000441887161    0.1300
     42 H42       -15.7955   -2.1529   58.9266 H       1  ZINC000441887161    0.0800
     43 H43       -16.0464   -1.2821   57.3946 H       1  ZINC000441887161    0.0800
     44 H44       -16.1245   -3.0600   57.4308 H       1  ZINC000441887161    0.0700
     45 H45       -14.0759    0.5842   58.5658 H       1  ZINC000441887161    0.0800
     46 H46       -13.5901    0.9749   56.8986 H       1  ZINC000441887161    0.0700
     47 H47       -15.1416    0.1583   57.2051 H       1  ZINC000441887161    0.0700
     48 H48       -11.4951   -0.2451   57.0383 H       1  ZINC000441887161    0.1400
     49 H49        -8.7602    1.7764   56.2866 H       1  ZINC000441887161    0.0800
     50 H50        -9.2032    3.0163   55.0888 H       1  ZINC000441887161    0.0700
     51 H51       -10.2434    1.5906   55.3203 H       1  ZINC000441887161    0.0600
     52 H52        -7.1072    2.8408   53.8750 H       1  ZINC000441887161    0.1300
@<TRIPOS>BOND
     1     1     2    1
     2     1    29    1
     3     1    30    1
     4     1    31    1
     5     2    28   ar
     6     2     3   ar
     7     3     4   ar
     8     3    32    1
     9     4     5   ar
    10     4    33    1
    11     5     6    1
    12     5    26   ar
    13     6     7    1
    14     6     8    1
    15     6    14    1
    16     8     9    1
    17     8    34    1
    18     8    35    1
    19     9    13    1
    20     9    10    1
    21    10    11    2
    22    10    36    1
    23    11    12    1
    24    11    37    1
    25    12    13    2
    26    13    38    1
    27    14    15   am
    28    14    39    1
    29    15    16    2
    30    15    17    2
    31    15    18    1
    32    18    25   ar
    33    18    19   ar
    34    19    20   ar
    35    19    40    1
    36    20    21   ar
    37    20    41    1
    38    21    22    1
    39    21    23   ar
    40    22    42    1
    41    22    43    1
    42    22    44    1
    43    23    24    1
    44    23    25   ar
    45    24    45    1
    46    24    46    1
    47    24    47    1
    48    25    48    1
    49    26    27    1
    50    26    28   ar
    51    27    49    1
    52    27    50    1
    53    27    51    1
    54    28    52    1
@<TRIPOS>SUBSTRUCTURE
     1 ZINC000441887161        1 TEMP              0 ****  ****    0 ROOT


##########                                Name:    ZINC000188380122
##########                DOCK_Rotatable_Bonds:                   6
##########                         Heavy_Atoms:                  27
##########                    Molecular_Weight:             396.433
##########                DOCK_Rotatable_Bonds:                   6
##########                       Formal_Charge:           0.0299998
##########                     HBond_Acceptors:                   8
##########                        HBond_Donors:                   1
##########                         Heavy_Atoms:                  27
##########                          Grid_Score:          -28.226786
##########                     Grid_vdw_energy:          -26.303062
##########                      Grid_es_energy:           -1.923723
##########           Internal_energy_repulsive:            9.827805

@<TRIPOS>MOLECULE
ZINC000188380122
 46 49 1 0 0
SMALL
USER_CHARGES


@<TRIPOS>ATOM
      1 O1        -12.4382   -4.4188   57.2856 O.2     1  ZINC000188380122   -0.5200
      2 C2        -11.8205   -3.3751   57.2782 C.2     1  ZINC000188380122    0.5200
      3 C3        -10.3170   -3.3900   57.1773 C.3     1  ZINC000188380122   -0.0700
      4 C4         -9.8106   -1.9804   57.0109 C.2     1  ZINC000188380122    0.0900
      5 C5         -9.8482   -1.3465   55.8340 C.2     1  ZINC000188380122   -0.2400
      6 S6         -9.1703    0.2654   56.0544 S.3     1  ZINC000188380122    0.1000
      7 C7         -8.8971   -0.0879   57.7587 C.2     1  ZINC000188380122    0.1100
      8 C8         -8.3003    0.8406   58.7425 C.ar    1  ZINC000188380122   -0.0200
      9 C9         -7.7904    2.0706   58.3253 C.ar    1  ZINC000188380122   -0.0400
     10 C10        -7.2351    2.9328   59.2486 C.ar    1  ZINC000188380122   -0.1200
     11 C11        -7.1830    2.5798   60.5851 C.ar    1  ZINC000188380122   -0.0600
     12 C12        -7.6869    1.3614   61.0052 C.ar    1  ZINC000188380122   -0.1800
     13 C13        -7.6264    0.9853   62.4633 C.3     1  ZINC000188380122    0.5100
     14 F14        -8.7239    0.1787   62.7829 F       1  ZINC000188380122   -0.1700
     15 F15        -6.4427    0.2835   62.7152 F       1  ZINC000188380122   -0.1700
     16 F16        -7.6564    2.1449   63.2455 F       1  ZINC000188380122   -0.1700
     17 C17        -8.2497    0.4929   60.0932 C.ar    1  ZINC000188380122   -0.0500
     18 N18        -9.3102   -1.2963   58.0138 N.2     1  ZINC000188380122   -0.4300
     19 N19       -12.4791   -2.2016   57.3546 N.am    1  ZINC000188380122   -0.7200
     20 C20       -13.9407   -2.1872   57.4526 C.3     1  ZINC000188380122    0.1300
     21 H21       -14.4138   -2.9607   56.8477 H       1  ZINC000188380122    0.1200
     22 C22       -14.5585   -0.7905   57.2619 C.3     1  ZINC000188380122   -0.1800
     23 C23       -15.5371   -1.1739   58.3781 C.3     1  ZINC000188380122    0.0900
     24 H24       -16.4014   -1.7126   57.9895 H       1  ZINC000188380122    0.1200
     25 O25       -15.9251   -0.1241   59.2283 O.3     1  ZINC000188380122   -0.3700
     26 C26       -14.9721    0.4555   60.0999 C.3     1  ZINC000188380122    0.0700
     27 C27       -14.1929   -0.6234   60.8506 C.3     1  ZINC000188380122   -0.1600
     28 C28       -13.4462   -1.4872   59.8295 C.3     1  ZINC000188380122   -0.1100
     29 C29       -14.4628   -2.1303   58.9027 C.3     1  ZINC000188380122   -0.1500
     30 H30       -14.8497   -3.0782   59.2770 H       1  ZINC000188380122    0.0900
     31 H31        -9.8961   -3.8224   58.0851 H       1  ZINC000188380122    0.1100
     32 H32       -10.0164   -3.9879   56.3169 H       1  ZINC000188380122    0.1100
     33 H33       -10.2281   -1.7524   54.9081 H       1  ZINC000188380122    0.1800
     34 H34        -7.8298    2.3470   57.2821 H       1  ZINC000188380122    0.1500
     35 H35        -6.8402    3.8851   58.9271 H       1  ZINC000188380122    0.1400
     36 H36        -6.7468    3.2578   61.3036 H       1  ZINC000188380122    0.1500
     37 H37        -8.6428   -0.4577   60.4224 H       1  ZINC000188380122    0.1400
     38 H38       -11.9853   -1.3668   57.3447 H       1  ZINC000188380122    0.4000
     39 H39       -13.8872    0.0258   57.5288 H       1  ZINC000188380122    0.0900
     40 H40       -15.0339   -0.6505   56.2911 H       1  ZINC000188380122    0.0800
     41 H41       -14.2765    1.0609   59.5188 H       1  ZINC000188380122    0.0500
     42 H42       -15.4857    1.0928   60.8197 H       1  ZINC000188380122    0.1000
     43 H43       -13.4773   -0.1546   61.5262 H       1  ZINC000188380122    0.0800
     44 H44       -14.8842   -1.2449   61.4198 H       1  ZINC000188380122    0.0800
     45 H45       -12.7665   -0.8625   59.2499 H       1  ZINC000188380122    0.0700
     46 H46       -12.8812   -2.2610   60.3490 H       1  ZINC000188380122    0.0800
@<TRIPOS>BOND
     1     1     2    2
     2     2     3    1
     3     2    19   am
     4     3     4    1
     5     3    31    1
     6     3    32    1
     7     4    18    1
     8     4     5    2
     9     5     6    1
    10     5    33    1
    11     6     7    1
    12     7     8    1
    13     7    18    2
    14     8    17   ar
    15     8     9   ar
    16     9    10   ar
    17     9    34    1
    18    10    11   ar
    19    10    35    1
    20    11    12   ar
    21    11    36    1
    22    12    13    1
    23    12    17   ar
    24    13    14    1
    25    13    15    1
    26    13    16    1
    27    17    37    1
    28    19    20    1
    29    19    38    1
    30    20    21    1
    31    20    29    1
    32    20    22    1
    33    22    23    1
    34    22    39    1
    35    22    40    1
    36    23    24    1
    37    23    29    1
    38    23    25    1
    39    25    26    1
    40    26    27    1
    41    26    41    1
    42    26    42    1
    43    27    28    1
    44    27    43    1
    45    27    44    1
    46    28    29    1
    47    28    45    1
    48    28    46    1
    49    29    30    1
@<TRIPOS>SUBSTRUCTURE
     1 ZINC000188380122        1 TEMP              0 ****  ****    0 ROOT


##########                                Name:    ZINC000481838178
##########                DOCK_Rotatable_Bonds:                   6
##########                         Heavy_Atoms:                  29
##########                    Molecular_Weight:             408.524
##########                DOCK_Rotatable_Bonds:                   6
##########                       Formal_Charge:         -0.00999962
##########                     HBond_Acceptors:                   7
##########                        HBond_Donors:                   0
##########                         Heavy_Atoms:                  29
##########                          Grid_Score:          -28.210499
##########                     Grid_vdw_energy:          -28.444736
##########                      Grid_es_energy:            0.234237
##########           Internal_energy_repulsive:            6.101261

@<TRIPOS>MOLECULE
ZINC000481838178
 53 57 1 0 0
SMALL
USER_CHARGES


@<TRIPOS>ATOM
      1 O1         -7.1106    2.6629   60.5512 O.2     1  ZINC000481838178   -0.5200
      2 C2         -7.1197    1.6172   61.1655 C.2     1  ZINC000481838178    0.5500
      3 C3         -7.0986    0.3065   60.4222 C.3     1  ZINC000481838178   -0.1500
      4 S4         -8.7947   -0.2005   60.0449 S.3     1  ZINC000481838178    0.1000
      5 C5         -8.9008    0.3133   58.3629 C.2     1  ZINC000481838178    0.1600
      6 N6         -8.1361    1.2024   57.7700 N.2     1  ZINC000481838178   -0.2800
      7 N7         -8.4848    1.3386   56.5408 N.2     1  ZINC000481838178   -0.2500
      8 C8         -9.4967    0.5433   56.2693 C.2     1  ZINC000481838178    0.2700
      9 C9        -10.1801    0.4078   54.9740 C.2     1  ZINC000481838178    0.0300
     10 C10       -10.5135    1.4283   54.1343 C.2     1  ZINC000481838178   -0.1300
     11 C11       -11.1475    0.8455   53.0201 C.2     1  ZINC000481838178   -0.2100
     12 C12       -11.1708   -0.4859   53.2294 C.2     1  ZINC000481838178   -0.0100
     13 O13       -10.5806   -0.7476   54.4075 O.3     1  ZINC000481838178   -0.1700
     14 N14        -9.7913   -0.1437   57.4287 N.pl3   1  ZINC000481838178   -0.4100
     15 C15       -10.7972   -1.1021   57.6139 C.ar    1  ZINC000481838178    0.1000
     16 C16       -10.4603   -2.4333   57.8190 C.ar    1  ZINC000481838178   -0.0800
     17 C17       -11.4538   -3.3755   58.0010 C.ar    1  ZINC000481838178   -0.1100
     18 C18       -12.7827   -2.9940   57.9793 C.ar    1  ZINC000481838178   -0.1000
     19 C19       -13.1213   -1.6689   57.7752 C.ar    1  ZINC000481838178   -0.1100
     20 C20       -12.1322   -0.7213   57.5983 C.ar    1  ZINC000481838178   -0.0900
     21 N21        -7.1430    1.6274   62.5131 N.am    1  ZINC000481838178   -0.6200
     22 C22        -7.1718    2.8391   63.3753 C.3     1  ZINC000481838178    0.1000
     23 C23        -7.8294    2.3341   64.6651 C.3     1  ZINC000481838178   -0.1100
     24 H24        -8.9014    2.1926   64.5277 H       1  ZINC000481838178    0.0900
     25 C25        -7.5452    3.1362   65.9210 C.3     1  ZINC000481838178   -0.1100
     26 C26        -8.2007    2.3873   67.0933 C.3     1  ZINC000481838178   -0.1200
     27 C27        -7.6784    0.9592   67.2116 C.3     1  ZINC000481838178   -0.1200
     28 C28        -7.8276    0.1900   65.8880 C.3     1  ZINC000481838178   -0.1000
     29 C29        -7.0957    0.9678   64.8189 C.3     1  ZINC000481838178   -0.1100
     30 H30        -6.0664    1.1491   65.1284 H       1  ZINC000481838178    0.0900
     31 C31        -7.1506    0.4313   63.3917 C.3     1  ZINC000481838178    0.1200
     32 H32        -6.5396    0.4241   59.4938 H       1  ZINC000481838178    0.1300
     33 H33        -6.6210   -0.4540   61.0400 H       1  ZINC000481838178    0.1300
     34 H34       -10.3279    2.4803   54.2930 H       1  ZINC000481838178    0.1600
     35 H35       -11.5411    1.3669   52.1602 H       1  ZINC000481838178    0.1600
     36 H36       -11.5904   -1.2211   52.5587 H       1  ZINC000481838178    0.2100
     37 H37        -9.4225   -2.7319   57.8358 H       1  ZINC000481838178    0.1300
     38 H38       -11.1923   -4.4111   58.1603 H       1  ZINC000481838178    0.1400
     39 H39       -13.5578   -3.7325   58.1215 H       1  ZINC000481838178    0.1300
     40 H40       -14.1602   -1.3741   57.7583 H       1  ZINC000481838178    0.1400
     41 H41       -12.3973    0.3135   57.4389 H       1  ZINC000481838178    0.1300
     42 H42        -6.1608    3.1953   63.5726 H       1  ZINC000481838178    0.0800
     43 H43        -7.7749    3.6231   62.9173 H       1  ZINC000481838178    0.0800
     44 H44        -6.4693    3.2077   66.0808 H       1  ZINC000481838178    0.0700
     45 H45        -7.9754    4.1336   65.8302 H       1  ZINC000481838178    0.0700
     46 H46        -7.9887    2.9215   68.0196 H       1  ZINC000481838178    0.0600
     47 H47        -9.2794    2.3599   66.9391 H       1  ZINC000481838178    0.0600
     48 H48        -6.6249    0.9875   67.4900 H       1  ZINC000481838178    0.0600
     49 H49        -8.2369    0.4394   67.9902 H       1  ZINC000481838178    0.0700
     50 H50        -7.3940   -0.8053   65.9856 H       1  ZINC000481838178    0.0700
     51 H51        -8.8813    0.1126   65.6200 H       1  ZINC000481838178    0.0700
     52 H52        -8.0588   -0.1529   63.2439 H       1  ZINC000481838178    0.0700
     53 H53        -6.2716   -0.1792   63.1850 H       1  ZINC000481838178    0.0700
@<TRIPOS>BOND
     1     1     2    2
     2     2     3    1
     3     2    21   am
     4     3     4    1
     5     3    32    1
     6     3    33    1
     7     4     5    1
     8     5    14    1
     9     5     6    2
    10     6     7    1
    11     7     8    2
    12     8     9    1
    13     8    14    1
    14     9    13    1
    15     9    10    2
    16    10    11    1
    17    10    34    1
    18    11    12    2
    19    11    35    1
    20    12    13    1
    21    12    36    1
    22    14    15    1
    23    15    20   ar
    24    15    16   ar
    25    16    17   ar
    26    16    37    1
    27    17    18   ar
    28    17    38    1
    29    18    19   ar
    30    18    39    1
    31    19    20   ar
    32    19    40    1
    33    20    41    1
    34    21    31    1
    35    21    22    1
    36    22    23    1
    37    22    42    1
    38    22    43    1
    39    23    24    1
    40    23    29    1
    41    23    25    1
    42    25    26    1
    43    25    44    1
    44    25    45    1
    45    26    27    1
    46    26    46    1
    47    26    47    1
    48    27    28    1
    49    27    48    1
    50    27    49    1
    51    28    29    1
    52    28    50    1
    53    28    51    1
    54    29    30    1
    55    29    31    1
    56    31    52    1
    57    31    53    1
@<TRIPOS>SUBSTRUCTURE
     1 ZINC000481838178        1 TEMP              0 ****  ****    0 ROOT


##########                                Name:    ZINC000443933644
##########                DOCK_Rotatable_Bonds:                   8
##########                         Heavy_Atoms:                  27
##########                    Molecular_Weight:             402.438
##########                DOCK_Rotatable_Bonds:                   8
##########                       Formal_Charge:          0.00999922
##########                     HBond_Acceptors:                   9
##########                        HBond_Donors:                   2
##########                         Heavy_Atoms:                  27
##########                          Grid_Score:          -28.207731
##########                     Grid_vdw_energy:          -26.461588
##########                      Grid_es_energy:           -1.746143
##########           Internal_energy_repulsive:           29.652462

@<TRIPOS>MOLECULE
ZINC000443933644
 48 49 1 0 0
SMALL
USER_CHARGES


@<TRIPOS>ATOM
      1 C1        -16.4608   -1.5374   55.2947 C.3     1  ZINC000443933644   -0.1500
      2 C2        -15.3544   -1.9874   56.2508 C.3     1  ZINC000443933644   -0.1400
      3 C3        -14.6150   -0.7606   56.7886 C.3     1  ZINC000443933644   -0.1000
      4 H4        -15.3383    0.0013   57.0789 H       1  ZINC000443933644    0.1000
      5 C5        -13.6949   -0.2025   55.7010 C.3     1  ZINC000443933644   -0.1700
      6 C6        -13.7802   -1.1616   58.0065 C.3     1  ZINC000443933644    0.1200
      7 H7        -13.0809   -0.3609   58.2473 H       1  ZINC000443933644    0.1300
      8 N8        -13.0351   -2.3867   57.7059 N.am    1  ZINC000443933644   -1.1100
      9 S9        -11.6339   -2.7248   58.5211 S.o2    1  ZINC000443933644    2.6900
     10 O10       -11.9485   -2.6565   59.9053 O.2     1  ZINC000443933644   -0.9400
     11 O11       -11.0804   -3.8798   57.9059 O.2     1  ZINC000443933644   -0.9400
     12 C12       -10.5122   -1.4042   58.2003 C.ar    1  ZINC000443933644   -0.7000
     13 C13       -10.1046   -1.1324   56.8834 C.ar    1  ZINC000443933644    0.0500
     14 C14       -10.5762   -1.8975   55.8024 C.ar    1  ZINC000443933644   -0.1400
     15 C15       -10.1611   -1.6065   54.5394 C.ar    1  ZINC000443933644   -0.0800
     16 C16        -9.2735   -0.5594   54.2995 C.ar    1  ZINC000443933644   -0.1200
     17 C17        -8.7960    0.2023   55.3221 C.ar    1  ZINC000443933644   -0.0900
     18 C18        -9.2023   -0.0680   56.6383 C.ar    1  ZINC000443933644   -0.0900
     19 C19        -8.7285    0.6999   57.7232 C.ar    1  ZINC000443933644    0.2300
     20 N20        -7.8385    1.7532   57.5051 N.am    1  ZINC000443933644   -0.6700
     21 C21        -6.5578    1.6484   57.9115 C.2     1  ZINC000443933644    0.5100
     22 C22        -5.5970    2.7853   57.6760 C.3     1  ZINC000443933644   -0.1700
     23 O23        -6.1784    0.6390   58.4667 O.2     1  ZINC000443933644   -0.5100
     24 C24        -9.1526    0.4010   59.0000 C.ar    1  ZINC000443933644   -0.1600
     25 C25       -10.0442   -0.6430   59.2276 C.ar    1  ZINC000443933644    0.0400
     26 C26       -14.7051   -1.4072   59.2003 C.3     1  ZINC000443933644    0.4300
     27 F27       -15.9854   -0.9268   58.9049 F       1  ZINC000443933644   -0.1700
     28 F28       -14.7713   -2.7794   59.4644 F       1  ZINC000443933644   -0.1600
     29 F29       -14.2042   -0.7398   60.3232 F       1  ZINC000443933644   -0.1700
     30 H30       -17.1621   -0.8949   55.8272 H       1  ZINC000443933644    0.0500
     31 H31       -16.0210   -0.9853   54.4642 H       1  ZINC000443933644    0.0600
     32 H32       -16.9876   -2.4114   54.9116 H       1  ZINC000443933644    0.0600
     33 H33       -15.7943   -2.5395   57.0814 H       1  ZINC000443933644    0.0700
     34 H34       -14.6531   -2.6298   55.7184 H       1  ZINC000443933644    0.0900
     35 H35       -14.2973    0.1906   54.8820 H       1  ZINC000443933644    0.0700
     36 H36       -13.0828    0.5973   56.1181 H       1  ZINC000443933644    0.0600
     37 H37       -13.0492   -0.9974   55.3282 H       1  ZINC000443933644    0.0700
     38 H38       -13.3626   -2.9999   57.0293 H       1  ZINC000443933644    0.4300
     39 H39       -11.2642   -2.7124   55.9735 H       1  ZINC000443933644    0.1400
     40 H40       -10.5247   -2.1961   53.7108 H       1  ZINC000443933644    0.1300
     41 H41        -8.9596   -0.3491   53.2878 H       1  ZINC000443933644    0.1300
     42 H42        -8.1080    1.0102   55.1216 H       1  ZINC000443933644    0.1300
     43 H43        -8.1420    2.5605   57.0611 H       1  ZINC000443933644    0.4200
     44 H44        -6.1149    3.5993   57.1688 H       1  ZINC000443933644    0.0800
     45 H45        -5.2120    3.1395   58.6322 H       1  ZINC000443933644    0.1000
     46 H46        -4.7695    2.4393   57.0568 H       1  ZINC000443933644    0.1000
     47 H47        -8.7922    0.9864   59.8329 H       1  ZINC000443933644    0.1500
     48 H48       -10.3627   -0.8590   60.2367 H       1  ZINC000443933644    0.1500
@<TRIPOS>BOND
     1     1     2    1
     2     1    30    1
     3     1    31    1
     4     1    32    1
     5     2     3    1
     6     2    33    1
     7     2    34    1
     8     3     4    1
     9     3     5    1
    10     3     6    1
    11     5    35    1
    12     5    36    1
    13     5    37    1
    14     6     7    1
    15     6     8    1
    16     6    26    1
    17     8     9   am
    18     8    38    1
    19     9    10    2
    20     9    11    2
    21     9    12    1
    22    12    25   ar
    23    12    13   ar
    24    13    18   ar
    25    13    14   ar
    26    14    15   ar
    27    14    39    1
    28    15    16   ar
    29    15    40    1
    30    16    17   ar
    31    16    41    1
    32    17    18   ar
    33    17    42    1
    34    18    19   ar
    35    19    20    1
    36    19    24   ar
    37    20    21   am
    38    20    43    1
    39    21    22    1
    40    21    23    2
    41    22    44    1
    42    22    45    1
    43    22    46    1
    44    24    25   ar
    45    24    47    1
    46    25    48    1
    47    26    27    1
    48    26    28    1
    49    26    29    1
@<TRIPOS>SUBSTRUCTURE
     1 ZINC000443933644        1 TEMP              0 ****  ****    0 ROOT


##########                                Name:    ZINC000787750060
##########                DOCK_Rotatable_Bonds:                   6
##########                         Heavy_Atoms:                  24
##########                    Molecular_Weight:             347.438
##########                DOCK_Rotatable_Bonds:                   6
##########                       Formal_Charge:           0.0200003
##########                     HBond_Acceptors:                   7
##########                        HBond_Donors:                   2
##########                         Heavy_Atoms:                  24
##########                          Grid_Score:          -28.200106
##########                     Grid_vdw_energy:          -27.913967
##########                      Grid_es_energy:           -0.286139
##########           Internal_energy_repulsive:            6.676723

@<TRIPOS>MOLECULE
ZINC000787750060
 45 47 1 0 0
SMALL
USER_CHARGES


@<TRIPOS>ATOM
      1 C1         -6.4719    4.5989   52.2003 C.3     1  ZINC000787750060   -0.1200
      2 C2         -7.0530    3.2578   52.5678 C.ar    1  ZINC000787750060   -0.0400
      3 C3         -8.2824    3.1907   53.2022 C.ar    1  ZINC000787750060   -0.1300
      4 C4         -8.8233    1.9696   53.5430 C.ar    1  ZINC000787750060   -0.0700
      5 C5         -8.1298    0.7939   53.2474 C.ar    1  ZINC000787750060   -0.1700
      6 C6         -8.7031   -0.5166   53.6089 C.2     1  ZINC000787750060    0.5600
      7 O7         -9.0314   -1.2980   52.7371 O.2     1  ZINC000787750060   -0.5200
      8 N8         -8.8630   -0.8476   54.9056 N.am    1  ZINC000787750060   -0.7300
      9 C9         -9.4340   -2.1482   55.2645 C.3     1  ZINC000787750060    0.2100
     10 C10       -10.7885   -1.9458   55.8934 C.2     1  ZINC000787750060   -0.2800
     11 C11       -11.7257   -1.0941   55.4765 C.2     1  ZINC000787750060    0.0900
     12 N12       -12.8335   -1.1004   56.1965 N.2     1  ZINC000787750060   -0.5200
     13 C13       -12.8742   -1.9183   57.2022 C.2     1  ZINC000787750060    0.2300
     14 N14       -13.9491   -2.0626   58.0653 N.3     1  ZINC000787750060   -0.4500
     15 C15       -13.5089   -2.0180   59.4672 C.3     1  ZINC000787750060    0.0200
     16 C16       -14.7308   -2.1207   60.3837 C.3     1  ZINC000787750060    0.0600
     17 O17       -15.4492   -3.3194   60.0797 O.3     1  ZINC000787750060   -0.3800
     18 C18       -15.8936   -3.3956   58.7225 C.3     1  ZINC000787750060    0.0600
     19 C19       -14.6833   -3.3059   57.7891 C.3     1  ZINC000787750060    0.0300
     20 S20       -11.4121   -2.7987   57.3030 S.3     1  ZINC000787750060    0.1700
     21 C21        -6.8859    0.8661   52.6049 C.ar    1  ZINC000787750060    0.1700
     22 O22        -6.2031   -0.2692   52.3128 O.3     1  ZINC000787750060   -0.4700
     23 C23        -6.3590    2.1028   52.2651 C.ar    1  ZINC000787750060   -0.1200
     24 C24        -5.0223    2.1872   51.5743 C.3     1  ZINC000787750060   -0.1200
     25 H25        -6.8044    4.8772   51.2003 H       1  ZINC000787750060    0.0800
     26 H26        -6.8075    5.3489   52.9165 H       1  ZINC000787750060    0.0700
     27 H27        -5.3836    4.5406   52.2183 H       1  ZINC000787750060    0.0800
     28 H28        -8.8194    4.0992   53.4312 H       1  ZINC000787750060    0.1300
     29 H29        -9.7819    1.9221   54.0381 H       1  ZINC000787750060    0.1300
     30 H30        -8.6001   -0.2247   55.6011 H       1  ZINC000787750060    0.4000
     31 H31        -9.5374   -2.7594   54.3680 H       1  ZINC000787750060    0.0900
     32 H32        -8.7759   -2.6509   55.9730 H       1  ZINC000787750060    0.0800
     33 H33       -11.5904   -0.4510   54.6194 H       1  ZINC000787750060    0.1800
     34 H34       -12.8353   -2.8522   59.6638 H       1  ZINC000787750060    0.0600
     35 H35       -12.9901   -1.0782   59.6561 H       1  ZINC000787750060    0.1000
     36 H36       -14.4048   -2.1456   61.4236 H       1  ZINC000787750060    0.1100
     37 H37       -15.3782   -1.2582   60.2252 H       1  ZINC000787750060    0.0700
     38 H38       -16.4085   -4.3427   58.5608 H       1  ZINC000787750060    0.1100
     39 H39       -16.5748   -2.5703   58.5155 H       1  ZINC000787750060    0.0600
     40 H40       -15.0220   -3.3062   56.7530 H       1  ZINC000787750060    0.1000
     41 H41       -14.0286   -4.1607   57.9589 H       1  ZINC000787750060    0.0700
     42 H42        -6.7150   -1.0798   52.4398 H       1  ZINC000787750060    0.4000
     43 H43        -5.1688    2.1563   50.4946 H       1  ZINC000787750060    0.0700
     44 H44        -4.5304    3.1206   51.8477 H       1  ZINC000787750060    0.0700
     45 H45        -4.4011    1.3457   51.8809 H       1  ZINC000787750060    0.0800
@<TRIPOS>BOND
     1     1     2    1
     2     1    25    1
     3     1    26    1
     4     1    27    1
     5     2    23   ar
     6     2     3   ar
     7     3     4   ar
     8     3    28    1
     9     4     5   ar
    10     4    29    1
    11     5     6    1
    12     5    21   ar
    13     6     7    2
    14     6     8   am
    15     8     9    1
    16     8    30    1
    17     9    10    1
    18     9    31    1
    19     9    32    1
    20    10    20    1
    21    10    11    2
    22    11    12    1
    23    11    33    1
    24    12    13    2
    25    13    14    1
    26    13    20    1
    27    14    19    1
    28    14    15    1
    29    15    16    1
    30    15    34    1
    31    15    35    1
    32    16    17    1
    33    16    36    1
    34    16    37    1
    35    17    18    1
    36    18    19    1
    37    18    38    1
    38    18    39    1
    39    19    40    1
    40    19    41    1
    41    21    22    1
    42    21    23   ar
    43    22    42    1
    44    23    24    1
    45    24    43    1
    46    24    44    1
    47    24    45    1
@<TRIPOS>SUBSTRUCTURE
     1 ZINC000787750060        1 TEMP              0 ****  ****    0 ROOT


##########                                Name:    ZINC000826435081
##########                DOCK_Rotatable_Bonds:                   7
##########                         Heavy_Atoms:                  28
##########                    Molecular_Weight:             388.361
##########                DOCK_Rotatable_Bonds:                   7
##########                       Formal_Charge:           0.0099996
##########                     HBond_Acceptors:                  12
##########                        HBond_Donors:                   3
##########                         Heavy_Atoms:                  28
##########                          Grid_Score:          -28.197409
##########                     Grid_vdw_energy:          -28.286236
##########                      Grid_es_energy:            0.088827
##########           Internal_energy_repulsive:            7.104203

@<TRIPOS>MOLECULE
ZINC000826435081
 45 48 1 0 0
SMALL
USER_CHARGES


@<TRIPOS>ATOM
      1 O1         -8.5710   -0.0778   53.2716 O.2     1  ZINC000826435081   -0.5700
      2 C2         -9.3235    0.7095   53.8125 C.2     1  ZINC000826435081    0.7200
      3 N3        -10.3721    0.2567   54.5277 N.am    1  ZINC000826435081   -0.7300
      4 C4        -10.6091   -1.1839   54.6485 C.3     1  ZINC000826435081    0.1500
      5 C5        -11.4758   -1.4569   55.8794 C.3     1  ZINC000826435081    0.0400
      6 H6        -12.5124   -1.2018   55.6589 H       1  ZINC000826435081    0.0800
      7 C7        -10.9787   -0.6089   57.0537 C.3     1  ZINC000826435081    0.0300
      8 O8        -11.7212   -0.9516   58.2277 O.3     1  ZINC000826435081   -0.3800
      9 C9        -11.6323   -2.3361   58.5776 C.3     1  ZINC000826435081    0.0200
     10 C10       -12.1295   -3.1841   57.4033 C.3     1  ZINC000826435081    0.0200
     11 O11       -11.3882   -2.8417   56.2284 O.3     1  ZINC000826435081   -0.3700
     12 N12        -9.1054    2.0349   53.7014 N.am    1  ZINC000826435081   -0.6400
     13 C13        -8.0152    2.5057   52.9578 C.2     1  ZINC000826435081    0.3300
     14 N14        -6.7605    2.1614   53.1295 N.2     1  ZINC000826435081   -0.2800
     15 N15        -5.9845    2.8512   52.1891 N.pl3   1  ZINC000826435081   -0.3300
     16 C16        -4.5959    2.7607   52.0423 C.ar    1  ZINC000826435081    0.2200
     17 C17        -4.0516    1.9558   51.0528 C.ar    1  ZINC000826435081   -0.1300
     18 C18        -2.6801    1.8667   50.9082 C.ar    1  ZINC000826435081   -0.0500
     19 C19        -1.8415    2.5775   51.7476 C.ar    1  ZINC000826435081   -0.1500
     20 C20        -2.3693    3.3844   52.7391 C.ar    1  ZINC000826435081    0.1500
     21 F21        -1.5468    4.0774   53.5566 F       1  ZINC000826435081   -0.1100
     22 C22        -3.7516    3.4863   52.8896 C.ar    1  ZINC000826435081   -0.0500
     23 C23        -4.3242    4.3501   53.9513 C.2     1  ZINC000826435081    0.2100
     24 N24        -4.4570    4.0464   55.2274 N.2     1  ZINC000826435081   -0.2800
     25 N25        -4.9951    5.0569   55.8191 N.pl3   1  ZINC000826435081   -0.2300
     26 N26        -5.2074    5.9909   54.9591 N.2     1  ZINC000826435081   -0.0500
     27 N27        -4.8021    5.5939   53.8008 N.2     1  ZINC000826435081   -0.2300
     28 C28        -6.8180    3.6232   51.4450 C.2     1  ZINC000826435081    0.0700
     29 C29        -8.0772    3.4231   51.8958 C.2     1  ZINC000826435081   -0.2400
     30 H30       -10.9701    0.8847   54.9626 H       1  ZINC000826435081    0.4000
     31 H31       -11.1215   -1.5439   53.7563 H       1  ZINC000826435081    0.0800
     32 H32        -9.6556   -1.7016   54.7535 H       1  ZINC000826435081    0.0900
     33 H33        -9.9199   -0.8052   57.2222 H       1  ZINC000826435081    0.0700
     34 H34       -11.1228    0.4474   56.8270 H       1  ZINC000826435081    0.1100
     35 H35       -10.5955   -2.5906   58.7973 H       1  ZINC000826435081    0.0600
     36 H36       -12.2499   -2.5306   59.4545 H       1  ZINC000826435081    0.1100
     37 H37       -11.9854   -4.2405   57.6300 H       1  ZINC000826435081    0.1100
     38 H38       -13.1883   -2.9878   57.2348 H       1  ZINC000826435081    0.0600
     39 H39        -9.7033    2.6629   54.1362 H       1  ZINC000826435081    0.4100
     40 H40        -4.7006    1.3975   50.3944 H       1  ZINC000826435081    0.1500
     41 H41        -2.2610    1.2385   50.1361 H       1  ZINC000826435081    0.1500
     42 H42        -0.7707    2.5018   51.6285 H       1  ZINC000826435081    0.1500
     43 H43        -5.2069    5.1061   56.7644 H       1  ZINC000826435081    0.4800
     44 H44        -6.5279    4.2762   50.6351 H       1  ZINC000826435081    0.1800
     45 H45        -8.9715    3.8915   51.5123 H       1  ZINC000826435081    0.1800
@<TRIPOS>BOND
     1     1     2    2
     2     2     3   am
     3     2    12   am
     4     3     4    1
     5     3    30    1
     6     4     5    1
     7     4    31    1
     8     4    32    1
     9     5     6    1
    10     5    11    1
    11     5     7    1
    12     7     8    1
    13     7    33    1
    14     7    34    1
    15     8     9    1
    16     9    10    1
    17     9    35    1
    18     9    36    1
    19    10    11    1
    20    10    37    1
    21    10    38    1
    22    12    13    1
    23    12    39    1
    24    13    29    1
    25    13    14    2
    26    14    15    1
    27    15    16    1
    28    15    28    1
    29    16    22   ar
    30    16    17   ar
    31    17    18   ar
    32    17    40    1
    33    18    19   ar
    34    18    41    1
    35    19    20   ar
    36    19    42    1
    37    20    21    1
    38    20    22   ar
    39    22    23    1
    40    23    27    1
    41    23    24    2
    42    24    25    1
    43    25    26    1
    44    25    43    1
    45    26    27    2
    46    28    29    2
    47    28    44    1
    48    29    45    1
@<TRIPOS>SUBSTRUCTURE
     1 ZINC000826435081        1 TEMP              0 ****  ****    0 ROOT


##########                                Name:    ZINC000587344575
##########                DOCK_Rotatable_Bonds:                   7
##########                         Heavy_Atoms:                  30
##########                    Molecular_Weight:             408.475
##########                DOCK_Rotatable_Bonds:                   7
##########                       Formal_Charge:          -0.0100002
##########                     HBond_Acceptors:                   7
##########                        HBond_Donors:                   2
##########                         Heavy_Atoms:                  30
##########                          Grid_Score:          -28.196386
##########                     Grid_vdw_energy:          -27.775417
##########                      Grid_es_energy:           -0.420969
##########           Internal_energy_repulsive:           30.389095

@<TRIPOS>MOLECULE
ZINC000587344575
 55 57 1 0 0
SMALL
USER_CHARGES


@<TRIPOS>ATOM
      1 C1        -10.1581   -1.2022   58.3420 C.3     1  ZINC000587344575   -0.1200
      2 C2        -10.3294   -0.2338   57.2002 C.ar    1  ZINC000587344575    0.0000
      3 C3         -9.2429    0.4575   56.7141 C.ar    1  ZINC000587344575   -0.1600
      4 C4         -9.4001    1.3515   55.6595 C.ar    1  ZINC000587344575    0.1800
      5 N5         -8.2972    2.0499   55.1692 N.am    1  ZINC000587344575   -0.6700
      6 C6         -7.8335    3.1282   55.8316 C.2     1  ZINC000587344575    0.5200
      7 O7         -8.3755    3.4911   56.8539 O.2     1  ZINC000587344575   -0.5000
      8 C8         -6.6415    3.8829   55.3017 C.3     1  ZINC000587344575   -0.1200
      9 H9         -6.1604    4.4410   56.1049 H       1  ZINC000587344575    0.1100
     10 C10        -7.0737    4.8402   54.1673 C.3     1  ZINC000587344575   -0.1200
     11 C11        -5.9091    4.7223   53.1521 C.3     1  ZINC000587344575    0.0400
     12 N12        -5.5422    3.2847   53.2212 N.3     1  ZINC000587344575   -0.4800
     13 C13        -4.2523    3.0748   52.7380 C.ar    1  ZINC000587344575    0.0700
     14 C14        -3.1803    3.7572   53.3027 C.ar    1  ZINC000587344575   -0.1200
     15 C15        -1.9038    3.5528   52.8276 C.ar    1  ZINC000587344575   -0.0700
     16 C16        -1.6852    2.6578   51.7767 C.ar    1  ZINC000587344575    0.0000
     17 C17        -0.3589    2.4432   51.2813 C.1     1  ZINC000587344575    0.2500
     18 N18         0.6932    2.2729   50.8882 N.1     1  ZINC000587344575   -0.4000
     19 C19        -2.7644    1.9720   51.2102 C.ar    1  ZINC000587344575   -0.1000
     20 C20        -4.0385    2.1771   51.6935 C.ar    1  ZINC000587344575    0.1300
     21 F21        -5.0822    1.5151   51.1479 F       1  ZINC000587344575   -0.1200
     22 C22        -5.6396    2.9113   54.6512 C.3     1  ZINC000587344575    0.0500
     23 C23       -10.6550    1.5498   55.0927 C.ar    1  ZINC000587344575   -0.1400
     24 C24       -11.7460    0.8615   55.5741 C.ar    1  ZINC000587344575   -0.0600
     25 C25       -11.5906   -0.0409   56.6296 C.ar    1  ZINC000587344575   -0.1600
     26 C26       -12.7579   -0.7809   57.1479 C.2     1  ZINC000587344575    0.5600
     27 O27       -13.7077   -0.1749   57.6050 O.2     1  ZINC000587344575   -0.5300
     28 N28       -12.7708   -2.1281   57.1144 N.am    1  ZINC000587344575   -0.7200
     29 C29       -13.9286   -2.8626   57.6305 C.3     1  ZINC000587344575    0.1400
     30 C30       -14.1606   -2.4853   59.0950 C.3     1  ZINC000587344575   -0.1600
     31 C31       -15.1682   -2.5031   56.8087 C.3     1  ZINC000587344575   -0.1600
     32 H32       -10.0504   -2.2128   57.9483 H       1  ZINC000587344575    0.0800
     33 H33        -9.2676   -0.9377   58.9122 H       1  ZINC000587344575    0.0600
     34 H34       -11.0323   -1.1564   58.9915 H       1  ZINC000587344575    0.1000
     35 H35        -8.2673    0.3062   57.1520 H       1  ZINC000587344575    0.1300
     36 H36        -7.8637    1.7596   54.3515 H       1  ZINC000587344575    0.4100
     37 H37        -8.0108    4.5094   53.7194 H       1  ZINC000587344575    0.0900
     38 H38        -7.1611    5.8618   54.5370 H       1  ZINC000587344575    0.0900
     39 H39        -6.2449    4.9860   52.1492 H       1  ZINC000587344575    0.0900
     40 H40        -5.0699    5.3485   53.4550 H       1  ZINC000587344575    0.0600
     41 H41        -3.3491    4.4489   54.1149 H       1  ZINC000587344575    0.1400
     42 H42        -1.0724    4.0840   53.2667 H       1  ZINC000587344575    0.1400
     43 H43        -2.5990    1.2796   50.3980 H       1  ZINC000587344575    0.1500
     44 H44        -4.6636    3.0070   55.1273 H       1  ZINC000587344575    0.0600
     45 H45        -6.0019    1.8874   54.7438 H       1  ZINC000587344575    0.1100
     46 H46       -10.7736    2.2447   54.2745 H       1  ZINC000587344575    0.1400
     47 H47       -12.7200    1.0159   55.1337 H       1  ZINC000587344575    0.1300
     48 H48       -12.0135   -2.6115   56.7487 H       1  ZINC000587344575    0.4000
     49 H49       -13.7418   -3.9338   57.5564 H       1  ZINC000587344575    0.0900
     50 H50       -14.3474   -1.4140   59.1690 H       1  ZINC000587344575    0.0600
     51 H51       -15.0220   -3.0318   59.4789 H       1  ZINC000587344575    0.0700
     52 H52       -13.2775   -2.7414   59.6804 H       1  ZINC000587344575    0.0600
     53 H53       -15.3551   -1.4317   56.8827 H       1  ZINC000587344575    0.0600
     54 H54       -15.0030   -2.7718   55.7654 H       1  ZINC000587344575    0.0600
     55 H55       -16.0296   -3.0495   57.1926 H       1  ZINC000587344575    0.0700
@<TRIPOS>BOND
     1     1     2    1
     2     1    32    1
     3     1    33    1
     4     1    34    1
     5     2    25   ar
     6     2     3   ar
     7     3     4   ar
     8     3    35    1
     9     4     5    1
    10     4    23   ar
    11     5     6   am
    12     5    36    1
    13     6     7    2
    14     6     8    1
    15     8     9    1
    16     8    22    1
    17     8    10    1
    18    10    11    1
    19    10    37    1
    20    10    38    1
    21    11    12    1
    22    11    39    1
    23    11    40    1
    24    12    13    1
    25    12    22    1
    26    13    20   ar
    27    13    14   ar
    28    14    15   ar
    29    14    41    1
    30    15    16   ar
    31    15    42    1
    32    16    17    1
    33    16    19   ar
    34    17    18    3
    35    19    20   ar
    36    19    43    1
    37    20    21    1
    38    22    44    1
    39    22    45    1
    40    23    24   ar
    41    23    46    1
    42    24    25   ar
    43    24    47    1
    44    25    26    1
    45    26    27    2
    46    26    28   am
    47    28    29    1
    48    28    48    1
    49    29    30    1
    50    29    31    1
    51    29    49    1
    52    30    50    1
    53    30    51    1
    54    30    52    1
    55    31    53    1
    56    31    54    1
    57    31    55    1
@<TRIPOS>SUBSTRUCTURE
     1 ZINC000587344575        1 TEMP              0 ****  ****    0 ROOT


##########                                Name:    ZINC000429196987
##########                DOCK_Rotatable_Bonds:                   7
##########                         Heavy_Atoms:                  28
##########                    Molecular_Weight:             403.505
##########                DOCK_Rotatable_Bonds:                   7
##########                       Formal_Charge:          -0.0399997
##########                     HBond_Acceptors:                   9
##########                        HBond_Donors:                   1
##########                         Heavy_Atoms:                  28
##########                          Grid_Score:          -28.176126
##########                     Grid_vdw_energy:          -29.271963
##########                      Grid_es_energy:            1.095836
##########           Internal_energy_repulsive:           14.417286

@<TRIPOS>MOLECULE
ZINC000429196987
 53 55 1 0 0
SMALL
USER_CHARGES


@<TRIPOS>ATOM
      1 C1         -8.4864    4.2939   53.2826 C.3     1  ZINC000429196987    0.0800
      2 N2         -7.4853    3.2299   53.3929 N.am    1  ZINC000429196987   -0.6300
      3 C3         -6.6674    2.8706   52.2319 C.3     1  ZINC000429196987    0.1600
      4 C4         -5.2279    3.2249   52.5025 C.ar    1  ZINC000429196987   -0.0600
      5 C5         -4.9219    4.2967   53.3202 C.ar    1  ZINC000429196987   -0.1300
      6 C6         -3.6014    4.6217   53.5684 C.ar    1  ZINC000429196987   -0.0300
      7 C7         -2.5870    3.8748   52.9993 C.ar    1  ZINC000429196987   -0.6600
      8 S8         -0.9038    4.2895   53.3153 S.o2    1  ZINC000429196987    2.5000
      9 C9         -0.5673    3.5961   54.9574 C.3     1  ZINC000429196987   -0.6500
     10 O10        -0.1763    3.5854   52.3181 O.2     1  ZINC000429196987   -0.9400
     11 O11        -0.8957    5.7097   53.3624 O.2     1  ZINC000429196987   -0.9400
     12 C12        -2.8930    2.8023   52.1826 C.ar    1  ZINC000429196987   -0.0300
     13 C13        -4.2134    2.4748   51.9375 C.ar    1  ZINC000429196987   -0.1100
     14 C14        -7.3170    2.5817   54.5624 C.2     1  ZINC000429196987    0.7100
     15 O15        -6.4852    1.6997   54.6544 O.2     1  ZINC000429196987   -0.5800
     16 N16        -8.0706    2.9112   55.6301 N.am    1  ZINC000429196987   -0.7400
     17 C17        -7.8888    2.2054   56.9009 C.3     1  ZINC000429196987    0.1600
     18 C18        -6.5421    2.5969   57.5156 C.3     1  ZINC000429196987   -0.1300
     19 C19        -6.3849    1.9040   58.8711 C.3     1  ZINC000429196987    0.0700
     20 N20        -7.4837    2.3064   59.7582 N.3     1  ZINC000429196987   -0.4700
     21 C21        -7.3009    1.7987   61.0398 C.ar    1  ZINC000429196987    0.2500
     22 C22        -7.2333    2.6623   62.1324 C.ar    1  ZINC000429196987   -0.1300
     23 C23        -7.0500    2.1062   63.3886 C.ar    1  ZINC000429196987   -0.1000
     24 C24        -6.9452    0.7255   63.4819 C.ar    1  ZINC000429196987    0.0200
     25 N25        -7.0204   -0.0164   62.3950 N.ar    1  ZINC000429196987   -0.2200
     26 N26        -7.1956    0.4914   61.2292 N.ar    1  ZINC000429196987   -0.2800
     27 C27        -8.7841    1.8988   59.2114 C.3     1  ZINC000429196987    0.0600
     28 C28        -9.0131    2.5915   57.8661 C.3     1  ZINC000429196987   -0.1200
     29 H29        -9.4396    3.8653   52.9729 H       1  ZINC000429196987    0.0600
     30 H30        -8.6049    4.7830   54.2495 H       1  ZINC000429196987    0.0700
     31 H31        -8.1594    5.0251   52.5432 H       1  ZINC000429196987    0.0800
     32 H32        -6.7494    1.7995   52.0471 H       1  ZINC000429196987    0.1000
     33 H33        -7.0179    3.4180   51.3569 H       1  ZINC000429196987    0.0900
     34 H34        -5.7144    4.8802   53.7650 H       1  ZINC000429196987    0.1300
     35 H35        -3.3622    5.4593   54.2068 H       1  ZINC000429196987    0.1400
     36 H36        -0.7235    2.5175   54.9354 H       1  ZINC000429196987    0.1300
     37 H37         0.4646    3.8082   55.2369 H       1  ZINC000429196987    0.1300
     38 H38        -1.2411    4.0460   55.6867 H       1  ZINC000429196987    0.1300
     39 H39        -2.1004    2.2185   51.7382 H       1  ZINC000429196987    0.1400
     40 H40        -4.4525    1.6370   51.2994 H       1  ZINC000429196987    0.1400
     41 H41        -8.7334    3.6157   55.5571 H       1  ZINC000429196987    0.4000
     42 H42        -7.9118    1.1296   56.7266 H       1  ZINC000429196987    0.0900
     43 H43        -5.7352    2.2859   56.8521 H       1  ZINC000429196987    0.0800
     44 H44        -6.5052    3.6775   57.6529 H       1  ZINC000429196987    0.0700
     45 H45        -6.4081    0.8233   58.7313 H       1  ZINC000429196987    0.0600
     46 H46        -5.4334    2.1920   59.3179 H       1  ZINC000429196987    0.0900
     47 H47        -7.3206    3.7311   62.0038 H       1  ZINC000429196987    0.1500
     48 H48        -6.9902    2.7290   64.2690 H       1  ZINC000429196987    0.1500
     49 H49        -6.8016    0.2588   64.4453 H       1  ZINC000429196987    0.1700
     50 H50        -8.7961    0.8181   59.0701 H       1  ZINC000429196987    0.0500
     51 H51        -9.5752    2.1830   59.9054 H       1  ZINC000429196987    0.0900
     52 H52        -9.0150    3.6721   58.0088 H       1  ZINC000429196987    0.0800
     53 H53        -9.9714    2.2768   57.4530 H       1  ZINC000429196987    0.0800
@<TRIPOS>BOND
     1     1     2    1
     2     1    29    1
     3     1    30    1
     4     1    31    1
     5     2     3    1
     6     2    14   am
     7     3     4    1
     8     3    32    1
     9     3    33    1
    10     4    13   ar
    11     4     5   ar
    12     5     6   ar
    13     5    34    1
    14     6     7   ar
    15     6    35    1
    16     7     8    1
    17     7    12   ar
    18     8     9    1
    19     8    10    2
    20     8    11    2
    21     9    36    1
    22     9    37    1
    23     9    38    1
    24    12    13   ar
    25    12    39    1
    26    13    40    1
    27    14    15    2
    28    14    16   am
    29    16    17    1
    30    16    41    1
    31    17    28    1
    32    17    18    1
    33    17    42    1
    34    18    19    1
    35    18    43    1
    36    18    44    1
    37    19    20    1
    38    19    45    1
    39    19    46    1
    40    20    21    1
    41    20    27    1
    42    21    26   ar
    43    21    22   ar
    44    22    23   ar
    45    22    47    1
    46    23    24   ar
    47    23    48    1
    48    24    25   ar
    49    24    49    1
    50    25    26   ar
    51    27    28    1
    52    27    50    1
    53    27    51    1
    54    28    52    1
    55    28    53    1
@<TRIPOS>SUBSTRUCTURE
     1 ZINC000429196987        1 TEMP              0 ****  ****    0 ROOT


##########                                Name:    ZINC000564088286
##########                DOCK_Rotatable_Bonds:                   6
##########                         Heavy_Atoms:                  25
##########                    Molecular_Weight:             398.934
##########                DOCK_Rotatable_Bonds:                   6
##########                       Formal_Charge:               -0.05
##########                     HBond_Acceptors:                   8
##########                        HBond_Donors:                   1
##########                         Heavy_Atoms:                  25
##########                          Grid_Score:          -28.171257
##########                     Grid_vdw_energy:          -28.602365
##########                      Grid_es_energy:            0.431109
##########           Internal_energy_repulsive:           12.384983

@<TRIPOS>MOLECULE
ZINC000564088286
 44 46 1 0 0
SMALL
USER_CHARGES


@<TRIPOS>ATOM
      1 C1        -13.3886   -1.5166   59.8079 C.3     1  ZINC000564088286   -0.1600
      2 C2        -13.2243   -1.1966   58.3207 C.3     1  ZINC000564088286    0.1100
      3 N3        -12.8294   -2.4099   57.6010 N.am    1  ZINC000564088286   -1.1200
      4 S4        -11.2254   -2.7773   57.4153 S.o2    1  ZINC000564088286    2.7000
      5 O5        -10.6564   -2.7595   58.7172 O.2     1  ZINC000564088286   -0.9600
      6 O6        -11.1696   -3.9093   56.5581 O.2     1  ZINC000564088286   -0.9600
      7 C7        -10.4844   -1.4461   56.5303 C.ar    1  ZINC000564088286   -0.6800
      8 C8         -9.4359   -0.7416   57.0918 C.ar    1  ZINC000564088286   -0.0200
      9 C9         -8.8545    0.3028   56.3975 C.ar    1  ZINC000564088286   -0.1300
     10 C10        -9.3214    0.6426   55.1414 C.ar    1  ZINC000564088286   -0.0100
     11 C11        -8.6880    1.7816   54.3848 C.3     1  ZINC000564088286   -0.1100
     12 C12        -7.7188    1.2328   53.3697 C.2     1  ZINC000564088286    0.5200
     13 O13        -7.6918    0.0424   53.1388 O.2     1  ZINC000564088286   -0.5200
     14 N14        -6.8821    2.0647   52.7183 N.am    1  ZINC000564088286   -0.6200
     15 C15        -6.8985    3.5112   52.9831 C.3     1  ZINC000564088286    0.1200
     16 C16        -5.5560    3.9089   53.6043 C.3     1  ZINC000564088286   -0.0700
     17 C17        -4.4358    3.2594   52.8196 C.2     1  ZINC000564088286   -0.1600
     18 C18        -4.5803    2.2102   51.9888 C.2     1  ZINC000564088286   -0.1200
     19 C19        -3.3917    1.7956   51.3952 C.2     1  ZINC000564088286   -0.1100
     20 C20        -2.3088    2.4932   51.7277 C.2     1  ZINC000564088286   -0.1500
     21 Cl21       -0.7047    2.1948   51.1348 Cl      1  ZINC000564088286   -0.0100
     22 S22        -2.7509    3.7634   52.8585 S.3     1  ZINC000564088286    0.1600
     23 C23        -5.9249    1.5494   51.7291 C.3     1  ZINC000564088286    0.1700
     24 C24       -10.3691   -0.0627   54.5795 C.ar    1  ZINC000564088286   -0.1300
     25 C25       -10.9478   -1.1097   55.2721 C.ar    1  ZINC000564088286   -0.0200
     26 H26       -14.1572   -2.2794   59.9327 H       1  ZINC000564088286    0.0600
     27 H27       -12.4434   -1.8843   60.2070 H       1  ZINC000564088286    0.0600
     28 H28       -13.6824   -0.6138   60.3435 H       1  ZINC000564088286    0.0700
     29 H29       -14.1696   -0.8288   57.9217 H       1  ZINC000564088286    0.0800
     30 H30       -12.4558   -0.4337   58.1960 H       1  ZINC000564088286    0.0700
     31 H31       -13.5074   -2.9981   57.2332 H       1  ZINC000564088286    0.4200
     32 H32        -9.0711   -1.0071   58.0730 H       1  ZINC000564088286    0.1400
     33 H33        -8.0358    0.8536   56.8365 H       1  ZINC000564088286    0.1300
     34 H34        -9.4626    2.3544   53.8750 H       1  ZINC000564088286    0.1100
     35 H35        -8.1562    2.4294   55.0816 H       1  ZINC000564088286    0.1100
     36 H36        -7.0440    4.0528   52.0484 H       1  ZINC000564088286    0.0800
     37 H37        -7.7065    3.7474   53.6755 H       1  ZINC000564088286    0.1100
     38 H38        -5.4448    4.9927   53.5691 H       1  ZINC000564088286    0.0900
     39 H39        -5.5191    3.5709   54.6399 H       1  ZINC000564088286    0.0900
     40 H40        -3.3509    0.9620   50.7097 H       1  ZINC000564088286    0.1500
     41 H41        -5.8309    0.4683   51.8313 H       1  ZINC000564088286    0.1000
     42 H42        -6.2705    1.7974   50.7256 H       1  ZINC000564088286    0.0900
     43 H43       -10.7335    0.2025   53.5980 H       1  ZINC000564088286    0.1300
     44 H44       -11.7664   -1.6607   54.8331 H       1  ZINC000564088286    0.1400
@<TRIPOS>BOND
     1     1     2    1
     2     1    26    1
     3     1    27    1
     4     1    28    1
     5     2     3    1
     6     2    29    1
     7     2    30    1
     8     3     4   am
     9     3    31    1
    10     4     5    2
    11     4     6    2
    12     4     7    1
    13     7    25   ar
    14     7     8   ar
    15     8     9   ar
    16     8    32    1
    17     9    10   ar
    18     9    33    1
    19    10    11    1
    20    10    24   ar
    21    11    12    1
    22    11    34    1
    23    11    35    1
    24    12    13    2
    25    12    14   am
    26    14    23    1
    27    14    15    1
    28    15    16    1
    29    15    36    1
    30    15    37    1
    31    16    17    1
    32    16    38    1
    33    16    39    1
    34    17    22    1
    35    17    18    2
    36    18    19    1
    37    18    23    1
    38    19    20    2
    39    19    40    1
    40    20    21    1
    41    20    22    1
    42    23    41    1
    43    23    42    1
    44    24    25   ar
    45    24    43    1
    46    25    44    1
@<TRIPOS>SUBSTRUCTURE
     1 ZINC000564088286        1 TEMP              0 ****  ****    0 ROOT


##########                                Name:    ZINC000894043060
##########                DOCK_Rotatable_Bonds:                  11
##########                         Heavy_Atoms:                  26
##########                    Molecular_Weight:             396.812
##########                DOCK_Rotatable_Bonds:                  11
##########                       Formal_Charge:          -0.0199999
##########                     HBond_Acceptors:                   9
##########                        HBond_Donors:                   2
##########                         Heavy_Atoms:                  26
##########                          Grid_Score:          -28.170084
##########                     Grid_vdw_energy:          -28.524765
##########                      Grid_es_energy:            0.354680
##########           Internal_energy_repulsive:           13.149254

@<TRIPOS>MOLECULE
ZINC000894043060
 47 47 1 0 0
SMALL
USER_CHARGES


@<TRIPOS>ATOM
      1 C1        -10.5292   -3.2844   58.2155 C.3     1  ZINC000894043060   -0.1700
      2 C2        -11.4059   -2.8533   57.0380 C.3     1  ZINC000894043060    0.1000
      3 H3        -11.2770   -3.5543   56.2133 H       1  ZINC000894043060    0.1100
      4 N4        -11.0139   -1.5104   56.6032 N.am    1  ZINC000894043060   -0.7300
      5 C5         -9.9613   -1.3501   55.7769 C.2     1  ZINC000894043060    0.5200
      6 O6         -9.3377   -2.3175   55.3945 O.2     1  ZINC000894043060   -0.5200
      7 C7         -9.5591    0.0312   55.3282 C.3     1  ZINC000894043060   -0.1400
      8 C8         -9.6412    0.1160   53.8028 C.3     1  ZINC000894043060   -0.0200
      9 C9        -10.6313    1.2128   53.4055 C.3     1  ZINC000894043060   -0.1400
     10 C10       -11.9596    0.5898   53.0613 C.2     1  ZINC000894043060    0.5200
     11 O11       -12.6563    0.1240   53.9380 O.2     1  ZINC000894043060   -0.5200
     12 N12       -12.3733    0.5502   51.7791 N.am    1  ZINC000894043060   -0.7300
     13 C13       -13.6654   -0.0539   51.4448 C.3     1  ZINC000894043060    0.1000
     14 H14       -13.9183   -0.8071   52.1909 H       1  ZINC000894043060    0.1200
     15 C15       -14.7457    1.0295   51.4273 C.3     1  ZINC000894043060   -0.1700
     16 C16       -13.5795   -0.7108   50.0656 C.3     1  ZINC000894043060    0.2600
     17 F17       -14.8352   -1.2151   49.7103 F       1  ZINC000894043060   -0.1900
     18 F18       -13.1740    0.2385   49.1214 F       1  ZINC000894043060   -0.2000
     19 C19        -8.2801    0.4414   53.2437 C.ar    1  ZINC000894043060   -0.0600
     20 C20        -7.7876    1.7302   53.3306 C.ar    1  ZINC000894043060   -0.1200
     21 C21        -6.5393    2.0293   52.8181 C.ar    1  ZINC000894043060   -0.1200
     22 C22        -5.7827    1.0385   52.2179 C.ar    1  ZINC000894043060   -0.0400
     23 Cl23       -4.2145    1.4132   51.5744 Cl      1  ZINC000894043060   -0.0800
     24 C24        -6.2762   -0.2512   52.1313 C.ar    1  ZINC000894043060   -0.1100
     25 C25        -7.5222   -0.5502   52.6493 C.ar    1  ZINC000894043060   -0.0400
     26 C26       -12.8730   -2.8409   57.4722 C.3     1  ZINC000894043060    0.2600
     27 F27       -13.0379   -1.9433   58.5325 F       1  ZINC000894043060   -0.2000
     28 F28       -13.6743   -2.4441   56.3963 F       1  ZINC000894043060   -0.1900
     29 H29       -10.6581   -2.5834   59.0402 H       1  ZINC000894043060    0.0600
     30 H30       -10.8209   -4.2836   58.5389 H       1  ZINC000894043060    0.0800
     31 H31        -9.4841   -3.2933   57.9062 H       1  ZINC000894043060    0.0800
     32 H32       -11.5119   -0.7366   56.9100 H       1  ZINC000894043060    0.4000
     33 H33       -10.2315    0.7668   55.7697 H       1  ZINC000894043060    0.1000
     34 H34        -8.5373    0.2343   55.6488 H       1  ZINC000894043060    0.1000
     35 H35        -9.9789   -0.8403   53.4034 H       1  ZINC000894043060    0.1000
     36 H36       -10.7595    1.9053   54.2374 H       1  ZINC000894043060    0.1000
     37 H37       -10.2477    1.7523   52.5396 H       1  ZINC000894043060    0.1000
     38 H38       -11.8156    0.9217   51.0778 H       1  ZINC000894043060    0.4000
     39 H39       -14.4927    1.7828   50.6811 H       1  ZINC000894043060    0.0700
     40 H40       -15.7070    0.5800   51.1784 H       1  ZINC000894043060    0.0800
     41 H41       -14.8068    1.4975   52.4098 H       1  ZINC000894043060    0.0700
     42 H42       -12.8561   -1.5255   50.0956 H       1  ZINC000894043060    0.1200
     43 H43        -8.3784    2.5035   53.7987 H       1  ZINC000894043060    0.1200
     44 H44        -6.1548    3.0362   52.8856 H       1  ZINC000894043060    0.1300
     45 H45        -5.6862   -1.0249   51.6627 H       1  ZINC000894043060    0.1300
     46 H46        -7.9074   -1.5570   52.5820 H       1  ZINC000894043060    0.1300
     47 H47       -13.1652   -3.8405   57.7936 H       1  ZINC000894043060    0.1100
@<TRIPOS>BOND
     1     1     2    1
     2     1    29    1
     3     1    30    1
     4     1    31    1
     5     2     3    1
     6     2     4    1
     7     2    26    1
     8     4     5   am
     9     4    32    1
    10     5     6    2
    11     5     7    1
    12     7     8    1
    13     7    33    1
    14     7    34    1
    15     8     9    1
    16     8    19    1
    17     8    35    1
    18     9    10    1
    19     9    36    1
    20     9    37    1
    21    10    11    2
    22    10    12   am
    23    12    13    1
    24    12    38    1
    25    13    14    1
    26    13    15    1
    27    13    16    1
    28    15    39    1
    29    15    40    1
    30    15    41    1
    31    16    17    1
    32    16    18    1
    33    16    42    1
    34    19    25   ar
    35    19    20   ar
    36    20    21   ar
    37    20    43    1
    38    21    22   ar
    39    21    44    1
    40    22    23    1
    41    22    24   ar
    42    24    25   ar
    43    24    45    1
    44    25    46    1
    45    26    27    1
    46    26    28    1
    47    26    47    1
@<TRIPOS>SUBSTRUCTURE
     1 ZINC000894043060        1 TEMP              0 ****  ****    0 ROOT


##########                                Name:    ZINC000906038034
##########                DOCK_Rotatable_Bonds:                   5
##########                         Heavy_Atoms:                  23
##########                    Molecular_Weight:             387.428
##########                DOCK_Rotatable_Bonds:                   5
##########                       Formal_Charge:         -0.00999987
##########                     HBond_Acceptors:                  12
##########                        HBond_Donors:                   0
##########                         Heavy_Atoms:                  23
##########                          Grid_Score:          -28.169819
##########                     Grid_vdw_energy:          -27.765171
##########                      Grid_es_energy:           -0.404647
##########           Internal_energy_repulsive:            3.074098

@<TRIPOS>MOLECULE
ZINC000906038034
 35 36 1 0 0
SMALL
USER_CHARGES


@<TRIPOS>ATOM
      1 C1         -4.5305    1.8907   51.4280 C.3     1  ZINC000906038034    0.1000
      2 N2         -5.5718    1.7744   52.4521 N.pl3   1  ZINC000906038034   -0.3700
      3 C3         -5.7541    2.6127   53.4954 C.2     1  ZINC000906038034    0.0600
      4 C4         -6.8117    2.1690   54.2080 C.2     1  ZINC000906038034   -0.2500
      5 C5         -7.3017    1.0073   53.5762 C.2     1  ZINC000906038034    0.1200
      6 C6         -8.4543    0.1945   54.0214 C.2     1  ZINC000906038034    0.1500
      7 N7         -9.0112    0.2531   55.1971 N.2     1  ZINC000906038034   -0.4300
      8 C8        -10.0299   -0.5471   55.4156 C.2     1  ZINC000906038034    0.0600
      9 C9        -10.7587   -0.5729   56.7343 C.3     1  ZINC000906038034   -0.5300
     10 S10       -10.0921   -1.9065   57.7676 S.o2    1  ZINC000906038034    2.4200
     11 O11        -8.9440   -2.4452   57.1266 O.2     1  ZINC000906038034   -0.9100
     12 O12        -9.9831   -1.4330   59.1030 O.2     1  ZINC000906038034   -0.9200
     13 C13       -11.4237   -3.1363   57.6975 C.3     1  ZINC000906038034   -0.6100
     14 C14       -12.6343   -2.6225   58.4793 C.3     1  ZINC000906038034   -0.4500
     15 S15       -14.1586   -3.1578   57.6542 S.o     1  ZINC000906038034    1.3300
     16 O16       -14.2312   -2.5670   56.3639 O.2     1  ZINC000906038034   -0.7600
     17 C17       -15.4597   -2.4641   58.7109 C.3     1  ZINC000906038034    0.1200
     18 F18       -15.3323   -1.0716   58.7542 F       1  ZINC000906038034   -0.1900
     19 F19       -16.7132   -2.8017   58.1894 F       1  ZINC000906038034   -0.1700
     20 F20       -15.3370   -2.9841   60.0038 F       1  ZINC000906038034   -0.1600
     21 C21       -10.3802   -1.3365   54.3955 C.2     1  ZINC000906038034   -0.2300
     22 S22        -9.2991   -1.0033   53.0439 S.3     1  ZINC000906038034    0.1600
     23 N23        -6.5542    0.7780   52.5153 N.2     1  ZINC000906038034   -0.2400
     24 H24        -4.8988    2.5006   50.6031 H       1  ZINC000906038034    0.0800
     25 H25        -3.6466    2.3598   51.8603 H       1  ZINC000906038034    0.0900
     26 H26        -4.2715    0.8984   51.0589 H       1  ZINC000906038034    0.0900
     27 H27        -5.1582    3.4848   53.7204 H       1  ZINC000906038034    0.1800
     28 H28        -7.2110    2.6227   55.1030 H       1  ZINC000906038034    0.1600
     29 H29       -10.6246    0.3821   57.2423 H       1  ZINC000906038034    0.1500
     30 H30       -11.8207   -0.7453   56.5592 H       1  ZINC000906038034    0.1600
     31 H31       -11.7073   -3.3060   56.6588 H       1  ZINC000906038034    0.1500
     32 H32       -11.0777   -4.0718   58.1370 H       1  ZINC000906038034    0.1500
     33 H33       -12.6094   -3.0236   59.4924 H       1  ZINC000906038034    0.1600
     34 H34       -12.6057   -1.5336   58.5190 H       1  ZINC000906038034    0.1300
     35 H35       -11.1889   -2.0523   54.3976 H       1  ZINC000906038034    0.1900
@<TRIPOS>BOND
     1     1     2    1
     2     1    24    1
     3     1    25    1
     4     1    26    1
     5     2    23    1
     6     2     3    1
     7     3     4    2
     8     3    27    1
     9     4     5    1
    10     4    28    1
    11     5     6    1
    12     5    23    2
    13     6    22    1
    14     6     7    2
    15     7     8    1
    16     8     9    1
    17     8    21    2
    18     9    10    1
    19     9    29    1
    20     9    30    1
    21    10    11    2
    22    10    12    2
    23    10    13    1
    24    13    14    1
    25    13    31    1
    26    13    32    1
    27    14    15    1
    28    14    33    1
    29    14    34    1
    30    15    16    2
    31    15    17    1
    32    17    18    1
    33    17    19    1
    34    17    20    1
    35    21    22    1
    36    21    35    1
@<TRIPOS>SUBSTRUCTURE
     1 ZINC000906038034        1 TEMP              0 ****  ****    0 ROOT


##########                                Name:    ZINC000151303733
##########                DOCK_Rotatable_Bonds:                   7
##########                         Heavy_Atoms:                  26
##########                    Molecular_Weight:             369.444
##########                DOCK_Rotatable_Bonds:                   7
##########                       Formal_Charge:        -1.93715e-07
##########                     HBond_Acceptors:                   7
##########                        HBond_Donors:                   2
##########                         Heavy_Atoms:                  26
##########                          Grid_Score:          -28.167921
##########                     Grid_vdw_energy:          -26.915089
##########                      Grid_es_energy:           -1.252833
##########           Internal_energy_repulsive:            8.255989

@<TRIPOS>MOLECULE
ZINC000151303733
 45 48 1 0 0
SMALL
USER_CHARGES


@<TRIPOS>ATOM
      1 C1         -7.5771    4.0962   61.2505 C.3     1  ZINC000151303733   -0.1000
      2 C2         -8.0788    2.6779   61.1618 C.2     1  ZINC000151303733   -0.1200
      3 C3         -8.5820    2.0277   62.2118 C.2     1  ZINC000151303733   -0.2000
      4 S4         -9.0608    0.4052   61.7310 S.3     1  ZINC000151303733    0.1200
      5 C5         -8.5361    0.7051   60.0794 C.2     1  ZINC000151303733   -0.2400
      6 C6         -8.0575    1.9507   59.9797 C.2     1  ZINC000151303733    0.1200
      7 N7         -7.5623    2.4787   58.7730 N.am    1  ZINC000151303733   -0.6400
      8 C8         -6.4571    1.9514   58.2099 C.2     1  ZINC000151303733    0.5100
      9 O9         -5.8893    1.0216   58.7435 O.2     1  ZINC000151303733   -0.5100
     10 C10        -5.9268    2.5169   56.9176 C.3     1  ZINC000151303733    0.1000
     11 N11        -6.6602    1.9332   55.7918 N.am    1  ZINC000151303733   -0.7100
     12 C12        -6.8908    2.6666   54.6848 C.2     1  ZINC000151303733    0.5200
     13 O13        -6.4924    3.8103   54.6214 O.2     1  ZINC000151303733   -0.5100
     14 C14        -7.6436    2.0655   53.5260 C.3     1  ZINC000151303733    0.1600
     15 H15        -7.9902    2.8526   52.8563 H       1  ZINC000151303733    0.1300
     16 C16        -8.8154    1.2610   54.0305 C.ar    1  ZINC000151303733   -0.0900
     17 C17        -9.9324    1.5825   54.7656 C.ar    1  ZINC000151303733   -0.0900
     18 C18       -10.8572    0.6015   55.0836 C.ar    1  ZINC000151303733   -0.0800
     19 C19       -10.6607   -0.7020   54.6637 C.ar    1  ZINC000151303733   -0.1200
     20 C20        -9.5433   -1.0352   53.9259 C.ar    1  ZINC000151303733   -0.0400
     21 C21        -8.6070   -0.0522   53.6015 C.ar    1  ZINC000151303733   -0.1500
     22 C22        -7.3419   -0.0960   52.8436 C.2     1  ZINC000151303733    0.5600
     23 O23        -6.8720   -1.0940   52.3332 O.2     1  ZINC000151303733   -0.5100
     24 N24        -6.7824    1.1268   52.7978 N.am    1  ZINC000151303733   -0.5700
     25 C25        -5.5221    1.4640   52.1315 C.3     1  ZINC000151303733    0.0900
     26 C26        -5.5893    1.8750   50.6592 C.3     1  ZINC000151303733   -0.1800
     27 C27        -5.3019    2.9251   51.7341 C.3     1  ZINC000151303733   -0.1900
     28 H28        -8.3958    4.7849   61.0418 H       1  ZINC000151303733    0.0700
     29 H29        -7.1916    4.2832   62.2528 H       1  ZINC000151303733    0.0700
     30 H30        -6.7811    4.2463   60.5212 H       1  ZINC000151303733    0.0600
     31 H31        -8.6802    2.4356   63.2070 H       1  ZINC000151303733    0.1700
     32 H32        -8.5952   -0.0060   59.2687 H       1  ZINC000151303733    0.2000
     33 H33        -8.0162    3.2223   58.3465 H       1  ZINC000151303733    0.4200
     34 H34        -6.0570    3.5991   56.9141 H       1  ZINC000151303733    0.1100
     35 H35        -4.8674    2.2781   56.8242 H       1  ZINC000151303733    0.1100
     36 H36        -6.9798    1.0188   55.8430 H       1  ZINC000151303733    0.4100
     37 H37       -10.0884    2.5991   55.0950 H       1  ZINC000151303733    0.1300
     38 H38       -11.7339    0.8548   55.6612 H       1  ZINC000151303733    0.1400
     39 H39       -11.3851   -1.4625   54.9152 H       1  ZINC000151303733    0.1400
     40 H40        -9.3939   -2.0539   53.5998 H       1  ZINC000151303733    0.1400
     41 H41        -4.6515    0.8940   52.4560 H       1  ZINC000151303733    0.1400
     42 H42        -4.7628    1.5751   50.0148 H       1  ZINC000151303733    0.1000
     43 H43        -6.5712    1.8943   50.1864 H       1  ZINC000151303733    0.1300
     44 H44        -6.0948    3.6353   51.9686 H       1  ZINC000151303733    0.1000
     45 H45        -4.2865    3.3162   51.7970 H       1  ZINC000151303733    0.1000
@<TRIPOS>BOND
     1     1     2    1
     2     1    28    1
     3     1    29    1
     4     1    30    1
     5     2     6    1
     6     2     3    2
     7     3     4    1
     8     3    31    1
     9     4     5    1
    10     5     6    2
    11     5    32    1
    12     6     7    1
    13     7     8   am
    14     7    33    1
    15     8     9    2
    16     8    10    1
    17    10    11    1
    18    10    34    1
    19    10    35    1
    20    11    12   am
    21    11    36    1
    22    12    13    2
    23    12    14    1
    24    14    15    1
    25    14    24    1
    26    14    16    1
    27    16    21   ar
    28    16    17   ar
    29    17    18   ar
    30    17    37    1
    31    18    19   ar
    32    18    38    1
    33    19    20   ar
    34    19    39    1
    35    20    21   ar
    36    20    40    1
    37    21    22    1
    38    22    23    2
    39    22    24   am
    40    24    25    1
    41    25    27    1
    42    25    26    1
    43    25    41    1
    44    26    27    1
    45    26    42    1
    46    26    43    1
    47    27    44    1
    48    27    45    1
@<TRIPOS>SUBSTRUCTURE
     1 ZINC000151303733        1 TEMP              0 ****  ****    0 ROOT


##########                                Name:    ZINC001345966764
##########                DOCK_Rotatable_Bonds:                  10
##########                         Heavy_Atoms:                  22
##########                    Molecular_Weight:             333.258
##########                DOCK_Rotatable_Bonds:                  10
##########                       Formal_Charge:           0.0099997
##########                     HBond_Acceptors:                  11
##########                        HBond_Donors:                   4
##########                         Heavy_Atoms:                  22
##########                          Grid_Score:          -28.143728
##########                     Grid_vdw_energy:          -26.688753
##########                      Grid_es_energy:           -1.454975
##########           Internal_energy_repulsive:            7.295877

@<TRIPOS>MOLECULE
ZINC001345966764
 38 38 1 0 0
SMALL
USER_CHARGES


@<TRIPOS>ATOM
      1 N1         -0.8177    2.2443   57.9162 N.3     1  ZINC001345966764   -0.8400
      2 C2         -1.5427    3.1589   57.0240 C.3     1  ZINC001345966764    0.0200
      3 C3         -0.5421    4.0471   56.2818 C.3     1  ZINC001345966764    0.2800
      4 F4          0.1341    4.8567   57.2008 F       1  ZINC001345966764   -0.1900
      5 F5          0.3794    3.2438   55.6015 F       1  ZINC001345966764   -0.1800
      6 C6         -1.2888    4.9284   55.2785 C.3     1  ZINC001345966764    0.0800
      7 N7         -1.9359    4.0825   54.2724 N.am    1  ZINC001345966764   -0.7000
      8 C8         -1.2685    3.7349   53.1542 C.2     1  ZINC001345966764    0.5100
      9 O9         -0.1324    4.1240   52.9800 O.2     1  ZINC001345966764   -0.5100
     10 C10        -1.9279    2.8705   52.1287 C.2     1  ZINC001345966764    0.5100
     11 O11        -1.2711    2.3859   51.2307 O.2     1  ZINC001345966764   -0.5100
     12 N12        -3.2518    2.6293   52.2012 N.am    1  ZINC001345966764   -0.7000
     13 C13        -3.8986    1.7834   51.1950 C.3     1  ZINC001345966764    0.1200
     14 C14        -5.4179    1.9137   51.3193 C.3     1  ZINC001345966764    0.0600
     15 H15        -5.8889    1.8001   50.3429 H       1  ZINC001345966764    0.0900
     16 C16        -5.9687    0.8623   52.3078 C.3     1  ZINC001345966764   -0.1400
     17 C17        -7.1032    1.6033   53.0504 C.3     1  ZINC001345966764   -0.1500
     18 C18        -7.1035    3.0147   52.4226 C.3     1  ZINC001345966764    0.0300
     19 H19        -7.8344    3.0711   51.6160 H       1  ZINC001345966764    0.1200
     20 C20        -7.4044    4.0712   53.4875 C.3     1  ZINC001345966764    0.4600
     21 F21        -6.4467    3.9945   54.5044 F       1  ZINC001345966764   -0.1700
     22 F22        -7.3666    5.3432   52.9063 F       1  ZINC001345966764   -0.1700
     23 F23        -8.6753    3.8422   54.0256 F       1  ZINC001345966764   -0.1700
     24 O24        -5.7672    3.1889   51.9005 O.3     1  ZINC001345966764   -0.3500
     25 H25        -1.4585    1.6791   58.4528 H       1  ZINC001345966764    0.3500
     26 H26        -0.1740    1.6668   57.3965 H       1  ZINC001345966764    0.3600
     27 H27        -2.1203    2.5809   56.3026 H       1  ZINC001345966764    0.1100
     28 H28        -2.2158    3.7828   57.6121 H       1  ZINC001345966764    0.0700
     29 H29        -2.0449    5.5139   55.8014 H       1  ZINC001345966764    0.1100
     30 H30        -0.5833    5.5999   54.7892 H       1  ZINC001345966764    0.1100
     31 H31        -2.8444    3.7725   54.4110 H       1  ZINC001345966764    0.4200
     32 H32        -3.7766    3.0157   52.9197 H       1  ZINC001345966764    0.4200
     33 H33        -3.5869    2.1001   50.1996 H       1  ZINC001345966764    0.1000
     34 H34        -3.6088    0.7446   51.3531 H       1  ZINC001345966764    0.0900
     35 H35        -6.3638    0.0013   51.7687 H       1  ZINC001345966764    0.0900
     36 H36        -5.1926    0.5526   53.0078 H       1  ZINC001345966764    0.0900
     37 H37        -8.0591    1.1085   52.8785 H       1  ZINC001345966764    0.1000
     38 H38        -6.8879    1.6599   54.1174 H       1  ZINC001345966764    0.0900
@<TRIPOS>BOND
     1     1     2    1
     2     1    25    1
     3     1    26    1
     4     2     3    1
     5     2    27    1
     6     2    28    1
     7     3     4    1
     8     3     5    1
     9     3     6    1
    10     6     7    1
    11     6    29    1
    12     6    30    1
    13     7     8   am
    14     7    31    1
    15     8     9    2
    16     8    10    1
    17    10    11    2
    18    10    12   am
    19    12    13    1
    20    12    32    1
    21    13    14    1
    22    13    33    1
    23    13    34    1
    24    14    15    1
    25    14    24    1
    26    14    16    1
    27    16    17    1
    28    16    35    1
    29    16    36    1
    30    17    18    1
    31    17    37    1
    32    17    38    1
    33    18    19    1
    34    18    20    1
    35    18    24    1
    36    20    21    1
    37    20    22    1
    38    20    23    1
@<TRIPOS>SUBSTRUCTURE
     1 ZINC001345966764        1 TEMP              0 ****  ****    0 ROOT


##########                                Name:    ZINC000285228948
##########                DOCK_Rotatable_Bonds:                   8
##########                         Heavy_Atoms:                  23
##########                    Molecular_Weight:             339.822
##########                DOCK_Rotatable_Bonds:                   8
##########                       Formal_Charge:           0.0299997
##########                     HBond_Acceptors:                   7
##########                        HBond_Donors:                   3
##########                         Heavy_Atoms:                  23
##########                          Grid_Score:          -28.123512
##########                     Grid_vdw_energy:          -25.847139
##########                      Grid_es_energy:           -2.276373
##########           Internal_energy_repulsive:           24.770624

@<TRIPOS>MOLECULE
ZINC000285228948
 45 46 1 0 0
SMALL
USER_CHARGES


@<TRIPOS>ATOM
      1 C1         -6.9956    0.1172   59.4685 C.3     1  <0>        -0.1600
      2 C2         -8.2520    0.3656   60.3057 C.3     1  <0>         0.1800
      3 H3         -8.0766    0.0377   61.3303 H       1  <0>         0.1100
      4 C4         -9.4060   -0.4076   59.7213 C.ar    1  <0>        -0.0900
      5 C5        -10.5051   -0.7062   60.5048 C.ar    1  <0>        -0.1000
      6 C6        -11.5637   -1.4153   59.9694 C.ar    1  <0>        -0.1100
      7 C7        -11.5233   -1.8264   58.6490 C.ar    1  <0>        -0.0300
      8 Cl8       -12.8529   -2.7167   57.9756 Cl      1  <0>        -0.0700
      9 C9        -10.4231   -1.5273   57.8653 C.ar    1  <0>        -0.1100
     10 C10        -9.3675   -0.8131   58.4002 C.ar    1  <0>        -0.0900
     11 N11        -8.5688    1.7959   60.2981 N.am    1  <0>        -0.6100
     12 C12        -9.4840    2.3382   59.2910 C.3     1  <0>         0.0600
     13 C13        -8.0182    2.6129   61.2179 C.2     1  <0>         0.5200
     14 O14        -8.2792    3.7974   61.2107 O.2     1  <0>        -0.5200
     15 C15        -7.0781    2.0549   62.2550 C.3     1  <0>         0.0300
     16 N16        -7.8535    1.5286   63.3862 N.3     1  <0>        -0.4900
     17 C17        -8.5206    2.6269   64.1310 C.3     1  <0>         0.0400
     18 C18        -8.8164    1.9902   65.5122 C.3     1  <0>        -0.1400
     19 C19        -7.5701    1.1099   65.7610 C.3     1  <0>         0.1100
     20 O20        -6.6296    1.8030   66.5839 O.3     1  <0>        -0.5400
     21 C21        -7.9695   -0.1917   66.4070 C.2     1  <0>         0.5000
     22 N22        -8.9437   -0.9449   65.8592 N.am    1  <0>        -0.8500
     23 O23        -7.4142   -0.5615   67.4199 O.2     1  <0>        -0.5200
     24 C24        -6.9726    0.8548   64.3648 C.3     1  <0>         0.0600
     25 H25        -6.7599   -0.9470   59.4741 H       1  <0>         0.0700
     26 H26        -7.1710    0.4451   58.4439 H       1  <0>         0.0600
     27 H27        -6.1609    0.6764   59.8912 H       1  <0>         0.0700
     28 H28       -10.5362   -0.3856   61.5357 H       1  <0>         0.1400
     29 H29       -12.4221   -1.6489   60.5818 H       1  <0>         0.1300
     30 H30       -10.3908   -1.8481   56.8346 H       1  <0>         0.1400
     31 H31        -8.5088   -0.5793   57.7884 H       1  <0>         0.1300
     32 H32       -10.5093    2.2614   59.6529 H       1  <0>         0.0600
     33 H33        -9.2416    3.3846   59.1056 H       1  <0>         0.0800
     34 H34        -9.3821    1.7722   58.3651 H       1  <0>         0.0800
     35 H35        -6.4867    1.2518   61.8149 H       1  <0>         0.1100
     36 H36        -6.4139    2.8447   62.6059 H       1  <0>         0.0700
     37 H37        -7.8524    3.4816   64.2366 H       1  <0>         0.0400
     38 H38        -9.4467    2.9201   63.6363 H       1  <0>         0.1200
     39 H39        -8.9055    2.7585   66.2801 H       1  <0>         0.0900
     40 H40        -9.7181    1.3790   65.4701 H       1  <0>         0.0900
     41 H41        -6.2713    2.6058   66.1813 H       1  <0>         0.3800
     42 H42        -9.2016   -1.7821   66.2756 H       1  <0>         0.4000
     43 H43        -9.3869   -0.6497   65.0484 H       1  <0>         0.4100
     44 H44        -6.9440   -0.2160   64.1631 H       1  <0>         0.1100
     45 H45        -5.9674    1.2728   64.3091 H       1  <0>         0.0700
@<TRIPOS>BOND
     1     1     2    1
     2     1    25    1
     3     1    26    1
     4     1    27    1
     5     2     3    1
     6     2     4    1
     7     2    11    1
     8     4    10   ar
     9     4     5   ar
    10     5     6   ar
    11     5    28    1
    12     6     7   ar
    13     6    29    1
    14     7     8    1
    15     7     9   ar
    16     9    10   ar
    17     9    30    1
    18    10    31    1
    19    11    12    1
    20    11    13   am
    21    12    32    1
    22    12    33    1
    23    12    34    1
    24    13    14    2
    25    13    15    1
    26    15    16    1
    27    15    35    1
    28    15    36    1
    29    16    24    1
    30    16    17    1
    31    17    18    1
    32    17    37    1
    33    17    38    1
    34    18    19    1
    35    18    39    1
    36    18    40    1
    37    19    20    1
    38    19    21    1
    39    19    24    1
    40    20    41    1
    41    21    22   am
    42    21    23    2
    43    22    42    1
    44    22    43    1
    45    24    44    1
    46    24    45    1
@<TRIPOS>SUBSTRUCTURE
     1 <0>         1 TEMP              0 ****  ****    0 ROOT


##########                                Name:    ZINC000534799364
##########                DOCK_Rotatable_Bonds:                   4
##########                         Heavy_Atoms:                  29
##########                    Molecular_Weight:             391.491
##########                DOCK_Rotatable_Bonds:                   4
##########                       Formal_Charge:           0.0199998
##########                     HBond_Acceptors:                   6
##########                        HBond_Donors:                   0
##########                         Heavy_Atoms:                  29
##########                          Grid_Score:          -28.114590
##########                     Grid_vdw_energy:          -27.767382
##########                      Grid_es_energy:           -0.347209
##########           Internal_energy_repulsive:            9.044476

@<TRIPOS>MOLECULE
ZINC000534799364
 55 59 1 0 0
SMALL
USER_CHARGES


@<TRIPOS>ATOM
      1 C1         -4.0738    4.6773   53.8576 C.3     1  ZINC000534799364   -0.1100
      2 C2         -3.8906    3.6081   52.8115 C.ar    1  ZINC000534799364   -0.0200
      3 C3         -2.6239    3.1965   52.4319 C.ar    1  ZINC000534799364   -0.1700
      4 C4         -2.4936    2.2130   51.4688 C.ar    1  ZINC000534799364    0.1000
      5 N5         -3.5557    1.6657   50.9111 N.ar    1  ZINC000534799364   -0.4800
      6 C6         -4.7789    2.0279   51.2429 C.ar    1  ZINC000534799364    0.0800
      7 C7         -4.9912    3.0052   52.2066 C.ar    1  ZINC000534799364    0.0300
      8 N8         -6.2892    3.3861   52.5561 N.3     1  ZINC000534799364   -0.5000
      9 C9         -6.8463    2.4849   53.5744 C.3     1  ZINC000534799364    0.0600
     10 C10        -8.2341    2.9812   53.9868 C.3     1  ZINC000534799364    0.0600
     11 N11        -9.1037    3.0356   52.8034 N.3     1  ZINC000534799364   -0.5300
     12 C12       -10.4684    3.4361   53.1709 C.3     1  ZINC000534799364    0.1400
     13 C13       -11.3114    2.2060   53.3886 C.2     1  ZINC000534799364    0.1100
     14 N14       -11.3709    1.5031   54.4899 N.2     1  ZINC000534799364   -0.2800
     15 N15       -12.2653    0.4454   54.2865 N.pl3   1  ZINC000534799364   -0.3100
     16 C16       -12.6084   -0.5376   55.2261 C.ar    1  ZINC000534799364    0.1500
     17 C17       -11.6132   -1.2413   55.8907 C.ar    1  ZINC000534799364   -0.1000
     18 C18       -11.9530   -2.2089   56.8157 C.ar    1  ZINC000534799364   -0.1300
     19 C19       -13.2856   -2.4775   57.0803 C.ar    1  ZINC000534799364    0.1000
     20 F20       -13.6161   -3.4242   57.9856 F       1  ZINC000534799364   -0.1300
     21 C21       -14.2797   -1.7766   56.4182 C.ar    1  ZINC000534799364   -0.1300
     22 C22       -13.9437   -0.8042   55.4968 C.ar    1  ZINC000534799364   -0.0800
     23 C23       -12.7408    0.5395   53.0213 C.2     1  ZINC000534799364    0.0500
     24 C24       -12.1711    1.6224   52.4473 C.2     1  ZINC000534799364   -0.2200
     25 C25       -12.6653    1.7821   51.0255 C.3     1  ZINC000534799364   -0.0400
     26 C26       -13.2810    0.4138   50.6599 C.3     1  ZINC000534799364   -0.1200
     27 C27       -13.6789   -0.1390   52.0471 C.3     1  ZINC000534799364   -0.0500
     28 C28        -8.5465    3.9368   51.7850 C.3     1  ZINC000534799364    0.0600
     29 C29        -7.1588    3.4405   51.3727 C.3     1  ZINC000534799364    0.0600
     30 H30        -4.2194    4.2111   54.8321 H       1  ZINC000534799364    0.0800
     31 H31        -3.1884    5.3122   53.8873 H       1  ZINC000534799364    0.0600
     32 H32        -4.9464    5.2820   53.6102 H       1  ZINC000534799364    0.0800
     33 H33        -1.7479    3.6391   52.8826 H       1  ZINC000534799364    0.1400
     34 H34        -1.5080    1.8887   51.1689 H       1  ZINC000534799364    0.1600
     35 H35        -5.6245    1.5569   50.7638 H       1  ZINC000534799364    0.1500
     36 H36        -6.9272    1.4782   53.1642 H       1  ZINC000534799364    0.0500
     37 H37        -6.1912    2.4713   54.4456 H       1  ZINC000534799364    0.0800
     38 H38        -8.6613    2.2981   54.7210 H       1  ZINC000534799364    0.0900
     39 H39        -8.1497    3.9770   54.4222 H       1  ZINC000534799364    0.0500
     40 H40       -10.4400    4.0241   54.0883 H       1  ZINC000534799364    0.1000
     41 H41       -10.8997    4.0349   52.3688 H       1  ZINC000534799364    0.0500
     42 H42       -10.5739   -1.0323   55.6843 H       1  ZINC000534799364    0.1400
     43 H43       -11.1791   -2.7568   57.3326 H       1  ZINC000534799364    0.1500
     44 H44       -15.3184   -1.9877   56.6255 H       1  ZINC000534799364    0.1500
     45 H45       -14.7192   -0.2576   54.9810 H       1  ZINC000534799364    0.1400
     46 H46       -13.4227    2.5643   50.9735 H       1  ZINC000534799364    0.0800
     47 H47       -11.8342    2.0137   50.3594 H       1  ZINC000534799364    0.0700
     48 H48       -14.1586    0.5387   50.0258 H       1  ZINC000534799364    0.0800
     49 H49       -12.5434   -0.2290   50.1794 H       1  ZINC000534799364    0.0800
     50 H50       -13.5380   -1.2193   52.0791 H       1  ZINC000534799364    0.0800
     51 H51       -14.7143    0.1156   52.2736 H       1  ZINC000534799364    0.0900
     52 H52        -9.2016    3.9504   50.9139 H       1  ZINC000534799364    0.0900
     53 H53        -8.4657    4.9434   52.1954 H       1  ZINC000534799364    0.0500
     54 H54        -6.7315    4.1236   50.6385 H       1  ZINC000534799364    0.0800
     55 H55        -7.2432    2.4447   50.9374 H       1  ZINC000534799364    0.0500
@<TRIPOS>BOND
     1     1     2    1
     2     1    30    1
     3     1    31    1
     4     1    32    1
     5     2     7   ar
     6     2     3   ar
     7     3     4   ar
     8     3    33    1
     9     4     5   ar
    10     4    34    1
    11     5     6   ar
    12     6     7   ar
    13     6    35    1
    14     7     8    1
    15     8    29    1
    16     8     9    1
    17     9    10    1
    18     9    36    1
    19     9    37    1
    20    10    11    1
    21    10    38    1
    22    10    39    1
    23    11    12    1
    24    11    28    1
    25    12    13    1
    26    12    40    1
    27    12    41    1
    28    13    24    1
    29    13    14    2
    30    14    15    1
    31    15    16    1
    32    15    23    1
    33    16    22   ar
    34    16    17   ar
    35    17    18   ar
    36    17    42    1
    37    18    19   ar
    38    18    43    1
    39    19    20    1
    40    19    21   ar
    41    21    22   ar
    42    21    44    1
    43    22    45    1
    44    23    27    1
    45    23    24    2
    46    24    25    1
    47    25    26    1
    48    25    46    1
    49    25    47    1
    50    26    27    1
    51    26    48    1
    52    26    49    1
    53    27    50    1
    54    27    51    1
    55    28    29    1
    56    28    52    1
    57    28    53    1
    58    29    54    1
    59    29    55    1
@<TRIPOS>SUBSTRUCTURE
     1 ZINC000534799364        1 TEMP              0 ****  ****    0 ROOT


##########                                Name:    ZINC000337709254
##########                DOCK_Rotatable_Bonds:                   7
##########                         Heavy_Atoms:                  22
##########                    Molecular_Weight:              329.42
##########                DOCK_Rotatable_Bonds:                   7
##########                       Formal_Charge:           0.0300004
##########                     HBond_Acceptors:                   8
##########                        HBond_Donors:                   2
##########                         Heavy_Atoms:                  22
##########                          Grid_Score:          -28.112867
##########                     Grid_vdw_energy:          -26.537868
##########                      Grid_es_energy:           -1.574999
##########           Internal_energy_repulsive:            9.491755

@<TRIPOS>MOLECULE
ZINC000337709254
 45 46 1 0 0
SMALL
USER_CHARGES


@<TRIPOS>ATOM
      1 C1         -7.7353    1.1222   61.0711 C.3     1  ZINC000337709254   -0.6700
      2 S2         -7.2995    0.7025   59.3610 S.o2    1  ZINC000337709254    2.6100
      3 O3         -6.0045    1.1930   59.0417 O.2     1  ZINC000337709254   -0.9500
      4 O4         -7.6682   -0.6381   59.0671 O.2     1  ZINC000337709254   -0.9500
      5 N5         -8.3228    1.6194   58.4368 N.am    1  ZINC000337709254   -1.1200
      6 C6         -8.2586    1.5408   56.9753 C.3     1  ZINC000337709254    0.1200
      7 C7         -9.4870    0.7949   56.4502 C.3     1  ZINC000337709254   -0.1100
      8 H8         -9.6509   -0.1184   57.0222 H       1  ZINC000337709254    0.1100
      9 C9        -10.7397    1.7040   56.5098 C.3     1  ZINC000337709254   -0.1200
     10 C10       -11.6687    1.0763   55.4412 C.3     1  ZINC000337709254   -0.1200
     11 C11       -10.7106    0.6530   54.3086 C.3     1  ZINC000337709254   -0.1400
     12 C12        -9.3219    0.4709   54.9510 C.3     1  ZINC000337709254    0.1500
     13 H13        -8.9830   -0.5571   54.8227 H       1  ZINC000337709254    0.1000
     14 N14        -8.3622    1.3950   54.3418 N.am    1  ZINC000337709254   -0.7200
     15 C15        -7.5556    0.9711   53.3489 C.2     1  ZINC000337709254    0.5300
     16 O16        -7.6233   -0.1759   52.9605 O.2     1  ZINC000337709254   -0.5100
     17 C17        -6.5696    1.9222   52.7210 C.3     1  ZINC000337709254    0.0200
     18 C18        -7.2622    2.7718   51.7384 C.1     1  ZINC000337709254    0.2000
     19 N19        -7.7967    3.4274   50.9801 N.1     1  ZINC000337709254   -0.3900
     20 C20        -5.9414    2.8002   53.8076 C.3     1  ZINC000337709254   -0.1500
     21 C21        -4.8851    3.7079   53.1720 C.3     1  ZINC000337709254    0.0600
     22 O22        -3.9042    2.9054   52.5117 O.3     1  ZINC000337709254   -0.3700
     23 C23        -4.4262    2.0984   51.4542 C.3     1  ZINC000337709254    0.0600
     24 C24        -5.4641    1.1259   52.0208 C.3     1  ZINC000337709254   -0.1300
     25 H25        -7.5839    2.1894   61.2332 H       1  ZINC000337709254    0.1300
     26 H26        -8.7808    0.8720   61.2514 H       1  ZINC000337709254    0.1300
     27 H27        -7.1032    0.5573   61.7563 H       1  ZINC000337709254    0.1300
     28 H28        -8.9647    2.2086   58.8630 H       1  ZINC000337709254    0.4200
     29 H29        -8.2389    2.5474   56.5577 H       1  ZINC000337709254    0.0600
     30 H30        -7.3555    1.0070   56.6795 H       1  ZINC000337709254    0.0900
     31 H31       -11.2014    1.6612   57.4963 H       1  ZINC000337709254    0.0800
     32 H32       -10.4850    2.7304   56.2455 H       1  ZINC000337709254    0.0700
     33 H33       -12.1858    0.2074   55.8482 H       1  ZINC000337709254    0.0700
     34 H34       -12.3857    1.8130   55.0789 H       1  ZINC000337709254    0.0700
     35 H35       -11.0433   -0.2879   53.8702 H       1  ZINC000337709254    0.0800
     36 H36       -10.6710    1.4284   53.5437 H       1  ZINC000337709254    0.0700
     37 H37        -8.3072    2.3120   54.6533 H       1  ZINC000337709254    0.4000
     38 H38        -6.7140    3.4115   54.2739 H       1  ZINC000337709254    0.0900
     39 H39        -5.4722    2.1675   54.5610 H       1  ZINC000337709254    0.1100
     40 H40        -5.3617    4.3684   52.4476 H       1  ZINC000337709254    0.0500
     41 H41        -4.4046    4.3047   53.9472 H       1  ZINC000337709254    0.1100
     42 H42        -4.8969    2.7378   50.7074 H       1  ZINC000337709254    0.0500
     43 H43        -3.6152    1.5357   50.9920 H       1  ZINC000337709254    0.1100
     44 H44        -4.9853    0.4594   52.7382 H       1  ZINC000337709254    0.1100
     45 H45        -5.8955    0.5400   51.2093 H       1  ZINC000337709254    0.0900
@<TRIPOS>BOND
     1     1     2    1
     2     1    25    1
     3     1    26    1
     4     1    27    1
     5     2     3    2
     6     2     4    2
     7     2     5   am
     8     5     6    1
     9     5    28    1
    10     6     7    1
    11     6    29    1
    12     6    30    1
    13     7     8    1
    14     7    12    1
    15     7     9    1
    16     9    10    1
    17     9    31    1
    18     9    32    1
    19    10    11    1
    20    10    33    1
    21    10    34    1
    22    11    12    1
    23    11    35    1
    24    11    36    1
    25    12    13    1
    26    12    14    1
    27    14    15   am
    28    14    37    1
    29    15    16    2
    30    15    17    1
    31    17    24    1
    32    17    18    1
    33    17    20    1
    34    18    19    3
    35    20    21    1
    36    20    38    1
    37    20    39    1
    38    21    22    1
    39    21    40    1
    40    21    41    1
    41    22    23    1
    42    23    24    1
    43    23    42    1
    44    23    43    1
    45    24    44    1
    46    24    45    1
@<TRIPOS>SUBSTRUCTURE
     1 ZINC000337709254        1 TEMP              0 ****  ****    0 ROOT


##########                                Name:    ZINC001220171460
##########                DOCK_Rotatable_Bonds:                  10
##########                         Heavy_Atoms:                  25
##########                    Molecular_Weight:             383.773
##########                DOCK_Rotatable_Bonds:                  10
##########                       Formal_Charge:           0.0199996
##########                     HBond_Acceptors:                  10
##########                        HBond_Donors:                   3
##########                         Heavy_Atoms:                  25
##########                          Grid_Score:          -28.100508
##########                     Grid_vdw_energy:          -25.653049
##########                      Grid_es_energy:           -2.447458
##########           Internal_energy_repulsive:            9.616094

@<TRIPOS>MOLECULE
ZINC001220171460
 43 44 1 0 0
SMALL
USER_CHARGES


@<TRIPOS>ATOM
      1 C1          4.2624   -3.7541   46.7071 C.3     1  ZINC001220171460    0.0200
      2 O2          3.3177   -2.9606   47.4281 O.3     1  ZINC001220171460   -0.3100
      3 C3          3.8181   -1.9919   48.2415 C.ar    1  ZINC001220171460    0.1000
      4 C4          4.6863   -2.3275   49.2668 C.ar    1  ZINC001220171460   -0.1500
      5 C5          5.1951   -1.3415   50.0939 C.ar    1  ZINC001220171460   -0.0600
      6 Cl6         6.2838   -1.7647   51.3782 Cl      1  ZINC001220171460   -0.0400
      7 C7          4.8376   -0.0175   49.8989 C.ar    1  ZINC001220171460    0.1000
      8 F8          5.3367    0.9421   50.7082 F       1  ZINC001220171460   -0.1200
      9 C9          3.9702    0.3238   48.8757 C.ar    1  ZINC001220171460   -0.1200
     10 C10         3.4624   -0.6601   48.0407 C.ar    1  ZINC001220171460    0.1800
     11 N11         2.5836   -0.3165   47.0036 N.am    1  ZINC001220171460   -0.6700
     12 C12         3.0620   -0.0765   45.7667 C.2     1  ZINC001220171460    0.7100
     13 O13         4.2557   -0.1581   45.5502 O.2     1  ZINC001220171460   -0.5700
     14 N14         2.2173    0.2538   44.7698 N.am    1  ZINC001220171460   -0.7400
     15 C15         2.7375    0.5163   43.4257 C.3     1  ZINC001220171460    0.1400
     16 C16         1.5714    0.7690   42.4679 C.3     1  ZINC001220171460   -0.1400
     17 C17         2.0394    1.6659   41.3201 C.3     1  ZINC001220171460    0.0500
     18 H18         2.9633    2.1690   41.6056 H       1  ZINC001220171460    0.1000
     19 N19         2.2773    0.8467   40.1242 N.3     1  ZINC001220171460   -0.6500
     20 C20         3.4364   -0.0360   40.3128 C.3     1  ZINC001220171460    0.0100
     21 C21         4.5210   -0.0181   39.2338 C.3     1  ZINC001220171460   -0.2000
     22 C22         4.7875    0.6231   40.5972 C.3     1  ZINC001220171460   -0.1600
     23 C23         0.9629    2.7101   41.0172 C.3     1  ZINC001220171460    0.4600
     24 F24         0.7364    3.4903   42.1560 F       1  ZINC001220171460   -0.1800
     25 F25         1.3908    3.5301   39.9676 F       1  ZINC001220171460   -0.1800
     26 F26        -0.2229    2.0644   40.6508 F       1  ZINC001220171460   -0.1700
     27 H27         4.8605   -3.1103   46.0622 H       1  ZINC001220171460    0.0600
     28 H28         4.9151   -4.2708   47.4107 H       1  ZINC001220171460    0.0600
     29 H29         3.7322   -4.4865   46.0983 H       1  ZINC001220171460    0.1100
     30 H30         4.9662   -3.3591   49.4212 H       1  ZINC001220171460    0.1500
     31 H31         3.6922    1.3565   48.7249 H       1  ZINC001220171460    0.1800
     32 H32         1.6313   -0.2515   47.1764 H       1  ZINC001220171460    0.4200
     33 H33         1.2648    0.3176   44.9423 H       1  ZINC001220171460    0.4000
     34 H34         3.3835    1.3938   43.4511 H       1  ZINC001220171460    0.0800
     35 H35         3.3092   -0.3460   43.0825 H       1  ZINC001220171460    0.0700
     36 H36         1.2188   -0.1808   42.0661 H       1  ZINC001220171460    0.1000
     37 H37         0.7600    1.2601   43.0051 H       1  ZINC001220171460    0.1000
     38 H38         1.4547    0.3159   39.8800 H       1  ZINC001220171460    0.3600
     39 H39         3.2279   -0.9878   40.8015 H       1  ZINC001220171460    0.1200
     40 H40         5.0262   -0.9582   39.0124 H       1  ZINC001220171460    0.1000
     41 H41         4.3745    0.6487   38.3840 H       1  ZINC001220171460    0.1000
     42 H42         4.8164    1.7117   40.6443 H       1  ZINC001220171460    0.1000
     43 H43         5.4681    0.1049   41.2726 H       1  ZINC001220171460    0.1000
@<TRIPOS>BOND
     1     1     2    1
     2     1    27    1
     3     1    28    1
     4     1    29    1
     5     2     3    1
     6     3    10   ar
     7     3     4   ar
     8     4     5   ar
     9     4    30    1
    10     5     6    1
    11     5     7   ar
    12     7     8    1
    13     7     9   ar
    14     9    10   ar
    15     9    31    1
    16    10    11    1
    17    11    12   am
    18    11    32    1
    19    12    13    2
    20    12    14   am
    21    14    15    1
    22    14    33    1
    23    15    16    1
    24    15    34    1
    25    15    35    1
    26    16    17    1
    27    16    36    1
    28    16    37    1
    29    17    18    1
    30    17    19    1
    31    17    23    1
    32    19    20    1
    33    19    38    1
    34    20    22    1
    35    20    21    1
    36    20    39    1
    37    21    22    1
    38    21    40    1
    39    21    41    1
    40    22    42    1
    41    22    43    1
    42    23    24    1
    43    23    25    1
    44    23    26    1
@<TRIPOS>SUBSTRUCTURE
     1 ZINC001220171460        1 TEMP              0 ****  ****    0 ROOT


##########                                Name:    ZINC000460163972
##########                DOCK_Rotatable_Bonds:                   7
##########                         Heavy_Atoms:                  28
##########                    Molecular_Weight:             408.469
##########                DOCK_Rotatable_Bonds:                   7
##########                       Formal_Charge:          -0.0100001
##########                     HBond_Acceptors:                   8
##########                        HBond_Donors:                   2
##########                         Heavy_Atoms:                  28
##########                          Grid_Score:          -28.078291
##########                     Grid_vdw_energy:          -28.361645
##########                      Grid_es_energy:            0.283354
##########           Internal_energy_repulsive:           52.260876

@<TRIPOS>MOLECULE
ZINC000460163972
 50 52 1 0 0
SMALL
USER_CHARGES


@<TRIPOS>ATOM
      1 C1        -10.8585   -3.7506   58.1264 C.3     1  ZINC000460163972   -0.1400
      2 C2        -10.5586   -2.4787   57.3760 C.ar    1  ZINC000460163972    0.0100
      3 C3         -9.7804   -2.5188   56.2338 C.ar    1  ZINC000460163972   -0.1300
      4 C4         -9.5036   -1.3547   55.5437 C.ar    1  ZINC000460163972   -0.0600
      5 C5        -10.0079   -0.1435   55.9979 C.ar    1  ZINC000460163972    0.1100
      6 N6         -9.7297    1.0375   55.3009 N.am    1  ZINC000460163972   -0.6700
      7 C7         -8.6084    1.7334   55.5746 C.2     1  ZINC000460163972    0.5200
      8 O8         -7.8404    1.3359   56.4252 O.2     1  ZINC000460163972   -0.5100
      9 C9         -8.3087    3.0053   54.8240 C.3     1  ZINC000460163972   -0.0700
     10 H10        -9.1774    3.2901   54.2305 H       1  ZINC000460163972    0.1200
     11 C11        -7.9833    4.1205   55.8197 C.3     1  ZINC000460163972   -0.1500
     12 C12        -7.1285    2.7848   53.9132 C.ar    1  ZINC000460163972   -0.0600
     13 C13        -6.3742    3.8620   53.4876 C.ar    1  ZINC000460163972   -0.0700
     14 C14        -5.2910    3.6623   52.6519 C.ar    1  ZINC000460163972   -0.1200
     15 C15        -4.9608    2.3829   52.2412 C.ar    1  ZINC000460163972    0.0700
     16 F16        -3.9022    2.1868   51.4250 F       1  ZINC000460163972   -0.1300
     17 C17        -5.7173    1.3020   52.6687 C.ar    1  ZINC000460163972    0.0700
     18 F18        -5.3968    0.0519   52.2689 F       1  ZINC000460163972   -0.1300
     19 C19        -6.7979    1.5047   53.5088 C.ar    1  ZINC000460163972   -0.1200
     20 C20       -10.7896   -0.1066   57.1455 C.ar    1  ZINC000460163972    0.0000
     21 C21       -11.3394    1.2059   57.6417 C.3     1  ZINC000460163972   -0.1500
     22 C22       -11.0667   -1.2744   57.8282 C.ar    1  ZINC000460163972   -0.6700
     23 S23       -12.0587   -1.2288   59.2836 S.o2    1  ZINC000460163972    2.7000
     24 O24       -11.1709   -1.3992   60.3800 O.2     1  ZINC000460163972   -0.9500
     25 O25       -12.9193   -0.1064   59.1476 O.2     1  ZINC000460163972   -0.9500
     26 N26       -13.0307   -2.5694   59.2564 N.am    1  ZINC000460163972   -1.0900
     27 C27       -13.9707   -2.7703   58.1509 C.3     1  ZINC000460163972    0.0800
     28 C28       -15.3046   -3.4474   58.4721 C.3     1  ZINC000460163972   -0.1800
     29 C29       -15.2618   -1.9495   58.1635 C.3     1  ZINC000460163972   -0.1900
     30 H30       -11.8234   -4.1430   57.8052 H       1  ZINC000460163972    0.1000
     31 H31       -10.0806   -4.4860   57.9209 H       1  ZINC000460163972    0.0800
     32 H32       -10.8887   -3.5429   59.1960 H       1  ZINC000460163972    0.0700
     33 H33        -9.3885   -3.4613   55.8810 H       1  ZINC000460163972    0.1400
     34 H34        -8.8952   -1.3867   54.6518 H       1  ZINC000460163972    0.1600
     35 H35       -10.3438    1.3554   54.6207 H       1  ZINC000460163972    0.4100
     36 H36        -7.7666    5.0404   55.2767 H       1  ZINC000460163972    0.0800
     37 H37        -8.8370    4.2799   56.4784 H       1  ZINC000460163972    0.0700
     38 H38        -7.1146    3.8356   56.4132 H       1  ZINC000460163972    0.0700
     39 H39        -6.6316    4.8608   53.8078 H       1  ZINC000460163972    0.1400
     40 H40        -4.7029    4.5048   52.3196 H       1  ZINC000460163972    0.1500
     41 H41        -7.3877    0.6637   53.8426 H       1  ZINC000460163972    0.1500
     42 H42       -12.3630    1.3282   57.2875 H       1  ZINC000460163972    0.1000
     43 H43       -11.3285    1.2155   58.7316 H       1  ZINC000460163972    0.1000
     44 H44       -10.7244    2.0232   57.2650 H       1  ZINC000460163972    0.0700
     45 H45       -12.9775   -3.2215   59.9726 H       1  ZINC000460163972    0.4200
     46 H46       -13.5186   -2.9826   57.1821 H       1  ZINC000460163972    0.1300
     47 H47       -15.7303   -4.1054   57.7146 H       1  ZINC000460163972    0.1100
     48 H48       -15.4827   -3.7434   59.5060 H       1  ZINC000460163972    0.1000
     49 H49       -15.4117   -1.2599   58.9943 H       1  ZINC000460163972    0.1000
     50 H50       -15.6593   -1.6220   57.2028 H       1  ZINC000460163972    0.1000
@<TRIPOS>BOND
     1     1     2    1
     2     1    30    1
     3     1    31    1
     4     1    32    1
     5     2    22   ar
     6     2     3   ar
     7     3     4   ar
     8     3    33    1
     9     4     5   ar
    10     4    34    1
    11     5     6    1
    12     5    20   ar
    13     6     7   am
    14     6    35    1
    15     7     8    2
    16     7     9    1
    17     9    10    1
    18     9    11    1
    19     9    12    1
    20    11    36    1
    21    11    37    1
    22    11    38    1
    23    12    19   ar
    24    12    13   ar
    25    13    14   ar
    26    13    39    1
    27    14    15   ar
    28    14    40    1
    29    15    16    1
    30    15    17   ar
    31    17    18    1
    32    17    19   ar
    33    19    41    1
    34    20    21    1
    35    20    22   ar
    36    21    42    1
    37    21    43    1
    38    21    44    1
    39    22    23    1
    40    23    24    2
    41    23    25    2
    42    23    26   am
    43    26    27    1
    44    26    45    1
    45    27    29    1
    46    27    28    1
    47    27    46    1
    48    28    29    1
    49    28    47    1
    50    28    48    1
    51    29    49    1
    52    29    50    1
@<TRIPOS>SUBSTRUCTURE
     1 ZINC000460163972        1 TEMP              0 ****  ****    0 ROOT


##########                                Name:    ZINC000469459940
##########                DOCK_Rotatable_Bonds:                   7
##########                         Heavy_Atoms:                  24
##########                    Molecular_Weight:             414.295
##########                DOCK_Rotatable_Bonds:                   7
##########                       Formal_Charge:          -0.0200002
##########                     HBond_Acceptors:                   6
##########                        HBond_Donors:                   1
##########                         Heavy_Atoms:                  24
##########                          Grid_Score:          -28.048067
##########                     Grid_vdw_energy:          -26.297356
##########                      Grid_es_energy:           -1.750712
##########           Internal_energy_repulsive:            6.480896

@<TRIPOS>MOLECULE
ZINC000469459940
 41 42 1 0 0
SMALL
USER_CHARGES


@<TRIPOS>ATOM
      1 C1        -17.9907   -1.6747   53.5287 C.3     1  ZINC000469459940   -0.1600
      2 C2        -17.7370   -2.6178   54.7064 C.3     1  ZINC000469459940   -0.1200
      3 C3        -16.9553   -1.8774   55.7935 C.3     1  ZINC000469459940   -0.1200
      4 C4        -16.7005   -2.8209   56.9707 C.3     1  ZINC000469459940   -0.6000
      5 S5        -15.7837   -1.9398   58.2643 S.o2    1  ZINC000469459940    2.4900
      6 O6        -16.3793   -0.6764   58.5253 O.2     1  ZINC000469459940   -0.9300
      7 O7        -15.4446   -2.8228   59.3247 O.2     1  ZINC000469459940   -0.9300
      8 C8        -14.2378   -1.5451   57.5164 C.ar    1  ZINC000469459940   -0.6400
      9 C9        -14.0951   -0.3622   56.8131 C.ar    1  ZINC000469459940   -0.0300
     10 C10       -12.8876   -0.0472   56.2248 C.ar    1  ZINC000469459940   -0.0800
     11 C11       -11.8084   -0.9250   56.3407 C.ar    1  ZINC000469459940   -0.0900
     12 C12       -10.5115   -0.5939   55.7134 C.2     1  ZINC000469459940    0.5600
     13 O13        -9.4732   -0.9065   56.2629 O.2     1  ZINC000469459940   -0.5000
     14 N14       -10.4803    0.0546   54.5324 N.am    1  ZINC000469459940   -0.6700
     15 C15        -9.2530    0.3679   53.9388 C.ar    1  ZINC000469459940    0.1900
     16 C16        -8.7608    1.6649   54.0025 C.ar    1  ZINC000469459940   -0.1500
     17 C17        -7.5486    1.9729   53.4158 C.ar    1  ZINC000469459940   -0.0400
     18 C18        -6.8243    0.9912   52.7645 C.ar    1  ZINC000469459940   -0.1500
     19 Br19       -5.1654    1.4170   51.9627 Br      1  ZINC000469459940   -0.0200
     20 C20        -7.3122   -0.3045   52.6988 C.ar    1  ZINC000469459940    0.1500
     21 F21        -6.6029   -1.2619   52.0620 F       1  ZINC000469459940   -0.1200
     22 C22        -8.5224   -0.6188   53.2900 C.ar    1  ZINC000469459940   -0.1500
     23 C23       -11.9591   -2.1166   57.0521 C.ar    1  ZINC000469459940   -0.1100
     24 C24       -13.1705   -2.4169   57.6399 C.ar    1  ZINC000469459940   -0.0300
     25 H25       -18.5676   -0.8148   53.8694 H       1  ZINC000469459940    0.0600
     26 H26       -17.0375   -1.3351   53.1234 H       1  ZINC000469459940    0.0600
     27 H27       -18.5476   -2.2021   52.7542 H       1  ZINC000469459940    0.0600
     28 H28       -18.6901   -2.9573   55.1118 H       1  ZINC000469459940    0.0700
     29 H29       -17.1601   -3.4775   54.3657 H       1  ZINC000469459940    0.0700
     30 H30       -16.0025   -1.5369   55.3879 H       1  ZINC000469459940    0.0800
     31 H31       -17.5326   -1.0181   56.1348 H       1  ZINC000469459940    0.0800
     32 H32       -17.6531   -3.1667   57.3719 H       1  ZINC000469459940    0.1400
     33 H33       -16.1172   -3.6767   56.6308 H       1  ZINC000469459940    0.1400
     34 H34       -14.9308    0.3161   56.7242 H       1  ZINC000469459940    0.1500
     35 H35       -12.7777    0.8760   55.6755 H       1  ZINC000469459940    0.1500
     36 H36       -11.3088    0.3041   54.0940 H       1  ZINC000469459940    0.4200
     37 H37        -9.3256    2.4327   54.5101 H       1  ZINC000469459940    0.1500
     38 H38        -7.1662    2.9817   53.4656 H       1  ZINC000469459940    0.1500
     39 H39        -8.9029   -1.6283   53.2392 H       1  ZINC000469459940    0.1600
     40 H40       -11.1282   -2.8001   57.1451 H       1  ZINC000469459940    0.1400
     41 H41       -13.2884   -3.3385   58.1905 H       1  ZINC000469459940    0.1500
@<TRIPOS>BOND
     1     1     2    1
     2     1    25    1
     3     1    26    1
     4     1    27    1
     5     2     3    1
     6     2    28    1
     7     2    29    1
     8     3     4    1
     9     3    30    1
    10     3    31    1
    11     4     5    1
    12     4    32    1
    13     4    33    1
    14     5     6    2
    15     5     7    2
    16     5     8    1
    17     8    24   ar
    18     8     9   ar
    19     9    10   ar
    20     9    34    1
    21    10    11   ar
    22    10    35    1
    23    11    12    1
    24    11    23   ar
    25    12    13    2
    26    12    14   am
    27    14    15    1
    28    14    36    1
    29    15    22   ar
    30    15    16   ar
    31    16    17   ar
    32    16    37    1
    33    17    18   ar
    34    17    38    1
    35    18    19    1
    36    18    20   ar
    37    20    21    1
    38    20    22   ar
    39    22    39    1
    40    23    24   ar
    41    23    40    1
    42    24    41    1
@<TRIPOS>SUBSTRUCTURE
     1 ZINC000469459940        1 TEMP              0 ****  ****    0 ROOT


##########                                Name:    ZINC000676564986
##########                DOCK_Rotatable_Bonds:                   5
##########                         Heavy_Atoms:                  25
##########                    Molecular_Weight:             347.444
##########                DOCK_Rotatable_Bonds:                   5
##########                       Formal_Charge:          -0.0100005
##########                     HBond_Acceptors:                   6
##########                        HBond_Donors:                   1
##########                         Heavy_Atoms:                  25
##########                          Grid_Score:          -28.043957
##########                     Grid_vdw_energy:          -27.644966
##########                      Grid_es_energy:           -0.398990
##########           Internal_energy_repulsive:            3.985342

@<TRIPOS>MOLECULE
ZINC000676564986
 42 45 1 0 0
SMALL
USER_CHARGES


@<TRIPOS>ATOM
      1 C1         -3.8084    3.1462   52.7666 C.3     1  ZINC000676564986    0.0800
      2 N2         -5.1002    2.6498   53.2476 N.pl3   1  ZINC000676564986   -0.4800
      3 C3         -5.9029    3.2521   54.1702 C.2     1  ZINC000676564986    0.2500
      4 N4         -6.9737    2.5377   54.3617 N.2     1  ZINC000676564986   -0.4600
      5 C5         -6.9264    1.4347   53.5766 C.ar    1  ZINC000676564986   -0.1100
      6 C6         -7.7756    0.3356   53.3645 C.ar    1  ZINC000676564986    0.5100
      7 N7         -8.9733    0.2239   54.0486 N.pl3   1  ZINC000676564986   -0.6900
      8 C8         -9.5954   -1.0905   54.2267 C.3     1  ZINC000676564986    0.1700
      9 C9         -9.9801   -1.2725   55.6724 C.ar    1  ZINC000676564986   -0.0800
     10 C10        -9.8174   -2.5044   56.2797 C.ar    1  ZINC000676564986   -0.1100
     11 C11       -10.1688   -2.6748   57.6041 C.ar    1  ZINC000676564986   -0.0700
     12 C12       -10.6866   -1.6067   58.3269 C.ar    1  ZINC000676564986   -0.1300
     13 S13       -11.1359   -1.8193   60.0173 S.3     1  ZINC000676564986   -0.0100
     14 C14       -10.3227   -0.4753   60.8156 C.ar    1  ZINC000676564986   -0.1000
     15 C15       -11.0321    0.3585   61.6717 C.ar    1  ZINC000676564986   -0.1200
     16 C16       -10.3915    1.4104   62.2959 C.ar    1  ZINC000676564986   -0.1000
     17 C17        -9.0456    1.6347   62.0702 C.ar    1  ZINC000676564986   -0.1200
     18 C18        -8.3364    0.8070   61.2188 C.ar    1  ZINC000676564986   -0.1000
     19 C19        -8.9693   -0.2500   60.5951 C.ar    1  ZINC000676564986   -0.1000
     20 C20       -10.8486   -0.3703   57.7133 C.ar    1  ZINC000676564986   -0.0700
     21 C21       -10.4898   -0.2057   56.3901 C.ar    1  ZINC000676564986   -0.1100
     22 N22        -7.4020   -0.5941   52.4913 N.ar    1  ZINC000676564986   -0.5900
     23 C23        -6.2613   -0.4956   51.8336 C.ar    1  ZINC000676564986    0.3600
     24 N24        -5.4345    0.5154   52.0003 N.ar    1  ZINC000676564986   -0.5600
     25 C25        -5.7264    1.4963   52.8479 C.ar    1  ZINC000676564986    0.3000
     26 H26        -3.9658    3.7878   51.8996 H       1  ZINC000676564986    0.0800
     27 H27        -3.3212    3.7169   53.5572 H       1  ZINC000676564986    0.0900
     28 H28        -3.1773    2.3033   52.4850 H       1  ZINC000676564986    0.0900
     29 H29        -5.6825    4.1843   54.6689 H       1  ZINC000676564986    0.2200
     30 H30        -9.4011    1.0158   54.4103 H       1  ZINC000676564986    0.4200
     31 H31       -10.4862   -1.1585   53.6023 H       1  ZINC000676564986    0.0800
     32 H32        -8.8891   -1.8689   53.9379 H       1  ZINC000676564986    0.0800
     33 H33        -9.4153   -3.3341   55.7173 H       1  ZINC000676564986    0.1300
     34 H34       -10.0419   -3.6370   58.0777 H       1  ZINC000676564986    0.1400
     35 H35       -12.0832    0.1841   61.8482 H       1  ZINC000676564986    0.1200
     36 H36       -10.9423    2.0589   62.9611 H       1  ZINC000676564986    0.1300
     37 H37        -8.5473    2.4585   62.5595 H       1  ZINC000676564986    0.1300
     38 H38        -7.2856    0.9851   61.0448 H       1  ZINC000676564986    0.1300
     39 H39        -8.4149   -0.8962   59.9307 H       1  ZINC000676564986    0.1300
     40 H40       -11.2507    0.4619   58.2719 H       1  ZINC000676564986    0.1300
     41 H41       -10.6154    0.7547   55.9127 H       1  ZINC000676564986    0.1300
     42 H42        -5.9962   -1.2737   51.1331 H       1  ZINC000676564986    0.2000
@<TRIPOS>BOND
     1     1     2    1
     2     1    26    1
     3     1    27    1
     4     1    28    1
     5     2    25    1
     6     2     3    1
     7     3     4    2
     8     3    29    1
     9     4     5    1
    10     5    25   ar
    11     5     6   ar
    12     6     7    1
    13     6    22   ar
    14     7     8    1
    15     7    30    1
    16     8     9    1
    17     8    31    1
    18     8    32    1
    19     9    21   ar
    20     9    10   ar
    21    10    11   ar
    22    10    33    1
    23    11    12   ar
    24    11    34    1
    25    12    13    1
    26    12    20   ar
    27    13    14    1
    28    14    19   ar
    29    14    15   ar
    30    15    16   ar
    31    15    35    1
    32    16    17   ar
    33    16    36    1
    34    17    18   ar
    35    17    37    1
    36    18    19   ar
    37    18    38    1
    38    19    39    1
    39    20    21   ar
    40    20    40    1
    41    21    41    1
    42    22    23   ar
    43    23    24   ar
    44    23    42    1
    45    24    25   ar
@<TRIPOS>SUBSTRUCTURE
     1 ZINC000676564986        1 TEMP              0 ****  ****    0 ROOT


##########                                Name:    ZINC000821214121
##########                DOCK_Rotatable_Bonds:                  10
##########                         Heavy_Atoms:                  23
##########                    Molecular_Weight:             338.434
##########                DOCK_Rotatable_Bonds:                  10
##########                       Formal_Charge:          0.00999954
##########                     HBond_Acceptors:                   9
##########                        HBond_Donors:                   3
##########                         Heavy_Atoms:                  23
##########                          Grid_Score:          -28.040009
##########                     Grid_vdw_energy:          -28.375631
##########                      Grid_es_energy:            0.335624
##########           Internal_energy_repulsive:           16.236103

@<TRIPOS>MOLECULE
ZINC000821214121
 45 46 1 0 0
SMALL
USER_CHARGES


@<TRIPOS>ATOM
      1 C1         -6.4946   -0.6233   51.8650 C.3     1  ZINC000821214121   -0.1500
      2 C2         -5.5503    0.4775   52.3521 C.3     1  ZINC000821214121    0.0500
      3 N3         -6.1889    1.7876   52.1674 N.3     1  ZINC000821214121   -0.5200
      4 C4         -6.5961    2.3612   53.4570 C.3     1  ZINC000821214121    0.0600
      5 C5         -7.9644    1.8034   53.8541 C.3     1  ZINC000821214121   -0.1200
      6 C6         -8.4413    2.4873   55.1369 C.3     1  ZINC000821214121    0.0800
      7 O7         -9.6987    1.9351   55.5319 O.3     1  ZINC000821214121   -0.5700
      8 C8         -5.3044    2.7063   51.4384 C.3     1  ZINC000821214121    0.0400
      9 C9         -4.0163    2.8755   52.2021 C.2     1  ZINC000821214121    0.5000
     10 O10        -3.0445    2.2122   51.9067 O.2     1  ZINC000821214121   -0.4800
     11 N11        -3.9439    3.7637   53.2130 N.am    1  ZINC000821214121   -0.6300
     12 C12        -2.7521    3.9214   53.9182 C.2     1  ZINC000821214121    0.0800
     13 C13        -2.6443    4.0069   55.2744 C.2     1  ZINC000821214121   -0.1000
     14 C14        -3.8141    3.9403   56.1827 C.2     1  ZINC000821214121    0.2900
     15 N15        -4.8415    4.7700   56.1971 N.2     1  ZINC000821214121   -0.3300
     16 N16        -5.6913    4.3125   57.2176 N.pl3   1  ZINC000821214121   -0.2900
     17 N17        -5.1373    3.2697   57.7347 N.2     1  ZINC000821214121    0.0200
     18 N18        -4.0267    3.0254   57.1349 N.2     1  ZINC000821214121   -0.2900
     19 C19        -1.3359    4.1626   55.7317 C.2     1  ZINC000821214121   -0.0500
     20 C20        -0.9990    4.2764   57.1962 C.3     1  ZINC000821214121   -0.1000
     21 C21        -0.4083    4.2028   54.7812 C.2     1  ZINC000821214121   -0.2400
     22 C22         1.0699    4.3637   55.0261 C.3     1  ZINC000821214121   -0.0800
     23 S23        -1.1519    4.0337   53.1977 S.3     1  ZINC000821214121    0.2600
     24 H24        -7.4563   -0.5264   52.3689 H       1  ZINC000821214121    0.0700
     25 H25        -6.6373   -0.5295   50.7885 H       1  ZINC000821214121    0.0500
     26 H26        -6.0628   -1.5984   52.0907 H       1  ZINC000821214121    0.0600
     27 H27        -5.3304    0.3263   53.4090 H       1  ZINC000821214121    0.0900
     28 H28        -4.6236    0.4411   51.7794 H       1  ZINC000821214121    0.0400
     29 H29        -5.8620    2.0996   54.2191 H       1  ZINC000821214121    0.0400
     30 H30        -6.6577    3.4459   53.3689 H       1  ZINC000821214121    0.0800
     31 H31        -8.6800    1.9923   53.0539 H       1  ZINC000821214121    0.0800
     32 H32        -7.8837    0.7296   54.0232 H       1  ZINC000821214121    0.0700
     33 H33        -7.7092    2.3265   55.9281 H       1  ZINC000821214121    0.0400
     34 H34        -8.5541    3.5566   54.9581 H       1  ZINC000821214121    0.0500
     35 H35        -9.6667    0.9905   55.7366 H       1  ZINC000821214121    0.3800
     36 H36        -5.0903    2.2976   50.4509 H       1  ZINC000821214121    0.0700
     37 H37        -5.7939    3.6745   51.3325 H       1  ZINC000821214121    0.1200
     38 H38        -4.7213    4.2934   53.4501 H       1  ZINC000821214121    0.4200
     39 H39        -6.5364    4.7075   57.4836 H       1  ZINC000821214121    0.4700
     40 H40        -0.8158    3.2828   57.6051 H       1  ZINC000821214121    0.0700
     41 H41        -0.1059    4.8894   57.3170 H       1  ZINC000821214121    0.0700
     42 H42        -1.8317    4.7394   57.7257 H       1  ZINC000821214121    0.0900
     43 H43         1.5281    3.3815   55.1414 H       1  ZINC000821214121    0.0700
     44 H44         1.5243    4.8796   54.1802 H       1  ZINC000821214121    0.0700
     45 H45         1.2264    4.9464   55.9338 H       1  ZINC000821214121    0.0800
@<TRIPOS>BOND
     1     1     2    1
     2     1    24    1
     3     1    25    1
     4     1    26    1
     5     2     3    1
     6     2    27    1
     7     2    28    1
     8     3     4    1
     9     3     8    1
    10     4     5    1
    11     4    29    1
    12     4    30    1
    13     5     6    1
    14     5    31    1
    15     5    32    1
    16     6     7    1
    17     6    33    1
    18     6    34    1
    19     7    35    1
    20     8     9    1
    21     8    36    1
    22     8    37    1
    23     9    10    2
    24     9    11   am
    25    11    12    1
    26    11    38    1
    27    12    23    1
    28    12    13    2
    29    13    14    1
    30    13    19    1
    31    14    18    1
    32    14    15    2
    33    15    16    1
    34    16    17    1
    35    16    39    1
    36    17    18    2
    37    19    20    1
    38    19    21    2
    39    20    40    1
    40    20    41    1
    41    20    42    1
    42    21    22    1
    43    21    23    1
    44    22    43    1
    45    22    44    1
    46    22    45    1
@<TRIPOS>SUBSTRUCTURE
     1 ZINC000821214121        1 TEMP              0 ****  ****    0 ROOT


##########                                Name:    ZINC000416583757
##########                DOCK_Rotatable_Bonds:                   7
##########                         Heavy_Atoms:                  20
##########                    Molecular_Weight:             380.693
##########                DOCK_Rotatable_Bonds:                   7
##########                       Formal_Charge:         1.04308e-07
##########                     HBond_Acceptors:                   7
##########                        HBond_Donors:                   1
##########                         Heavy_Atoms:                  20
##########                          Grid_Score:          -28.005747
##########                     Grid_vdw_energy:          -25.987823
##########                      Grid_es_energy:           -2.017923
##########           Internal_energy_repulsive:            6.938539

@<TRIPOS>MOLECULE
ZINC000416583757
 35 35 1 0 0
SMALL
USER_CHARGES


@<TRIPOS>ATOM
      1 C1         -1.0225    1.2455   40.8023 C.3     1  ZINC000416583757   -0.1500
      2 C2          0.4913    1.4533   40.8780 C.3     1  ZINC000416583757   -0.0200
      3 H3          0.9548    1.0851   39.9627 H       1  ZINC000416583757    0.1200
      4 C4          0.7825    2.8879   41.0326 C.1     1  ZINC000416583757    0.2100
      5 N5          1.0071    3.9951   41.1518 N.1     1  ZINC000416583757   -0.4200
      6 C6          1.0521    0.6869   42.0776 C.3     1  ZINC000416583757    0.1300
      7 N7          2.5147    0.7694   42.0692 N.am    1  ZINC000416583757   -1.0100
      8 C8          3.2637    0.3768   40.8729 C.3     1  ZINC000416583757    0.0800
      9 S9          3.3216    1.3061   43.4121 S.o2    1  ZINC000416583757    2.7800
     10 O10         4.7061    1.1268   43.1467 O.2     1  ZINC000416583757   -0.9700
     11 O11         2.7510    2.5636   43.7471 O.2     1  ZINC000416583757   -0.9700
     12 N12         2.9463    0.2765   44.6537 N.am    1  ZINC000416583757   -1.1300
     13 C13         3.5165    0.4961   45.9851 C.3     1  ZINC000416583757    0.1600
     14 C14         3.8483   -0.8322   46.6148 C.ar    1  ZINC000416583757   -0.0800
     15 C15         3.6362   -1.0281   47.9663 C.ar    1  ZINC000416583757   -0.0800
     16 C16         3.9402   -2.2478   48.5449 C.ar    1  ZINC000416583757   -0.0300
     17 Cl17        3.6732   -2.4940   50.2425 Cl      1  ZINC000416583757   -0.0500
     18 C18         4.4565   -3.2707   47.7703 C.ar    1  ZINC000416583757   -0.0700
     19 C19         4.6685   -3.0740   46.4176 C.ar    1  ZINC000416583757   -0.0800
     20 Br20        5.3742   -4.4721   45.3579 Br      1  ZINC000416583757   -0.0300
     21 C21         4.3593   -1.8562   45.8393 C.ar    1  ZINC000416583757   -0.0700
     22 H22        -1.4388    1.8857   40.0247 H       1  ZINC000416583757    0.0700
     23 H23        -1.2347    0.2026   40.5666 H       1  ZINC000416583757    0.0800
     24 H24        -1.4726    1.4999   41.7619 H       1  ZINC000416583757    0.0700
     25 H25         0.6688    1.1243   42.9996 H       1  ZINC000416583757    0.0900
     26 H26         0.7466   -0.3576   42.0164 H       1  ZINC000416583757    0.1000
     27 H27         3.3931    1.2435   40.2245 H       1  ZINC000416583757    0.0700
     28 H28         4.2409   -0.0072   41.1656 H       1  ZINC000416583757    0.0800
     29 H29         2.7142   -0.3981   40.3382 H       1  ZINC000416583757    0.0800
     30 H30         2.3488   -0.4718   44.4993 H       1  ZINC000416583757    0.4200
     31 H31         4.4240    1.0935   45.8976 H       1  ZINC000416583757    0.0800
     32 H32         2.7934    1.0230   46.6078 H       1  ZINC000416583757    0.1000
     33 H33         3.2334   -0.2290   48.5710 H       1  ZINC000416583757    0.1500
     34 H34         4.6943   -4.2228   48.2214 H       1  ZINC000416583757    0.1500
     35 H35         4.5249   -1.7025   44.7831 H       1  ZINC000416583757    0.1400
@<TRIPOS>BOND
     1     1     2    1
     2     1    22    1
     3     1    23    1
     4     1    24    1
     5     2     3    1
     6     2     4    1
     7     2     6    1
     8     4     5    3
     9     6     7    1
    10     6    25    1
    11     6    26    1
    12     7     8    1
    13     7     9   am
    14     8    27    1
    15     8    28    1
    16     8    29    1
    17     9    10    2
    18     9    11    2
    19     9    12   am
    20    12    13    1
    21    12    30    1
    22    13    14    1
    23    13    31    1
    24    13    32    1
    25    14    21   ar
    26    14    15   ar
    27    15    16   ar
    28    15    33    1
    29    16    17    1
    30    16    18   ar
    31    18    19   ar
    32    18    34    1
    33    19    20    1
    34    19    21   ar
    35    21    35    1
@<TRIPOS>SUBSTRUCTURE
     1 ZINC000416583757        1 TEMP              0 ****  ****    0 ROOT


##########                                Name:    ZINC001289445798
##########                DOCK_Rotatable_Bonds:                  10
##########                         Heavy_Atoms:                  25
##########                    Molecular_Weight:             352.434
##########                DOCK_Rotatable_Bonds:                  10
##########                       Formal_Charge:          0.00999932
##########                     HBond_Acceptors:                   8
##########                        HBond_Donors:                   2
##########                         Heavy_Atoms:                  25
##########                          Grid_Score:          -28.004856
##########                     Grid_vdw_energy:          -26.136730
##########                      Grid_es_energy:           -1.868126
##########           Internal_energy_repulsive:           19.559647

@<TRIPOS>MOLECULE
ZINC001289445798
 53 54 1 0 0
SMALL
USER_CHARGES


@<TRIPOS>ATOM
      1 C1        -15.9249   -3.0648   57.6459 C.3     1  ZINC001289445798   -0.1500
      2 C2        -15.0967   -3.2836   58.9135 C.3     1  ZINC001289445798    0.0600
      3 O3        -14.9192   -2.0362   59.5878 O.3     1  ZINC001289445798   -0.3700
      4 C4        -14.0180   -1.1432   58.9303 C.3     1  ZINC001289445798    0.1100
      5 H5        -13.9475   -1.4094   57.8757 H       1  ZINC001289445798    0.0700
      6 C6        -12.6349   -1.2474   59.5762 C.3     1  ZINC001289445798   -0.1400
      7 C7        -11.6846   -0.3051   58.8833 C.2     1  ZINC001289445798    0.5400
      8 O8        -11.6357   -0.2756   57.6718 O.2     1  ZINC001289445798   -0.5200
      9 N9        -10.8891    0.5046   59.6097 N.am    1  ZINC001289445798   -0.6200
     10 C10       -10.8406    0.5660   61.0779 C.3     1  ZINC001289445798    0.1000
     11 C11        -9.7701    1.6105   61.4577 C.3     1  ZINC001289445798    0.1400
     12 H12       -10.2288    2.5800   61.6517 H       1  ZINC001289445798    0.1200
     13 N13        -8.9981    1.1626   62.6195 N.am    1  ZINC001289445798   -0.7200
     14 C14        -9.5932    1.0583   63.8243 C.2     1  ZINC001289445798    0.6000
     15 O15       -10.7706    1.3373   63.9474 O.2     1  ZINC001289445798   -0.5100
     16 C16        -8.8182    0.6067   64.9911 C.2     1  ZINC001289445798   -0.0500
     17 C17        -7.4570    0.3608   65.0397 C.2     1  ZINC001289445798   -0.1400
     18 C18        -7.2005   -0.0420   66.3522 C.2     1  ZINC001289445798    0.0000
     19 N19        -8.3341   -0.0271   67.0055 N.2     1  ZINC001289445798   -0.2700
     20 N20        -9.2972    0.3519   66.2447 N.pl3   1  ZINC001289445798   -0.3800
     21 C21        -8.8771    1.6696   60.1902 C.3     1  ZINC001289445798    0.0700
     22 H22        -8.1463    0.8610   60.1891 H       1  ZINC001289445798    0.0900
     23 O23        -8.2317    2.9396   60.0771 O.3     1  ZINC001289445798   -0.3700
     24 C24        -6.8704    2.9405   60.5118 C.3     1  ZINC001289445798    0.0300
     25 C25        -9.9187    1.4709   59.0639 C.3     1  ZINC001289445798    0.0800
     26 C26       -14.5350    0.2908   59.0608 C.3     1  ZINC001289445798   -0.1100
     27 C27       -15.7187    0.4946   58.1130 C.3     1  ZINC001289445798   -0.1500
     28 C28       -14.9862    0.5412   60.5012 C.3     1  ZINC001289445798   -0.1500
     29 H29       -15.4058   -2.3673   56.9887 H       1  ZINC001289445798    0.0600
     30 H30       -16.0604   -4.0163   57.1317 H       1  ZINC001289445798    0.0700
     31 H31       -16.8986   -2.6551   57.9143 H       1  ZINC001289445798    0.0600
     32 H32       -15.6157   -3.9812   59.5709 H       1  ZINC001289445798    0.0500
     33 H33       -14.1229   -3.6934   58.6451 H       1  ZINC001289445798    0.0500
     34 H34       -12.7055   -0.9816   60.6310 H       1  ZINC001289445798    0.1100
     35 H35       -12.2663   -2.2689   59.4828 H       1  ZINC001289445798    0.1000
     36 H36       -11.8114    0.8713   61.4683 H       1  ZINC001289445798    0.0800
     37 H37       -10.5667   -0.4090   61.4808 H       1  ZINC001289445798    0.0800
     38 H38        -8.0588    0.9413   62.5218 H       1  ZINC001289445798    0.4000
     39 H39        -6.7447    0.4596   64.2338 H       1  ZINC001289445798    0.1700
     40 H40        -6.2374   -0.3176   66.7559 H       1  ZINC001289445798    0.1900
     41 H41       -10.2242    0.4374   66.5170 H       1  ZINC001289445798    0.4400
     42 H42        -6.4521    3.9401   60.3941 H       1  ZINC001289445798    0.0900
     43 H43        -6.8238    2.6484   61.5609 H       1  ZINC001289445798    0.0400
     44 H44        -6.2970    2.2338   59.9119 H       1  ZINC001289445798    0.0500
     45 H45        -9.4397    1.0695   58.1709 H       1  ZINC001289445798    0.0900
     46 H46       -10.4167    2.4137   58.8372 H       1  ZINC001289445798    0.0900
     47 H47       -13.7387    0.9891   58.8030 H       1  ZINC001289445798    0.0800
     48 H48       -16.5150   -0.2036   58.3709 H       1  ZINC001289445798    0.0600
     49 H49       -16.0871    1.5163   58.2061 H       1  ZINC001289445798    0.0600
     50 H50       -15.3973    0.3163   57.0868 H       1  ZINC001289445798    0.0600
     51 H51       -14.1236    0.4924   61.1658 H       1  ZINC001289445798    0.0600
     52 H52       -15.4443    1.5277   60.5723 H       1  ZINC001289445798    0.0600
     53 H53       -15.7121   -0.2182   60.7919 H       1  ZINC001289445798    0.0500
@<TRIPOS>BOND
     1     1     2    1
     2     1    29    1
     3     1    30    1
     4     1    31    1
     5     2     3    1
     6     2    32    1
     7     2    33    1
     8     3     4    1
     9     4     5    1
    10     4     6    1
    11     4    26    1
    12     6     7    1
    13     6    34    1
    14     6    35    1
    15     7     8    2
    16     7     9   am
    17     9    25    1
    18     9    10    1
    19    10    11    1
    20    10    36    1
    21    10    37    1
    22    11    12    1
    23    11    13    1
    24    11    21    1
    25    13    14   am
    26    13    38    1
    27    14    15    2
    28    14    16    1
    29    16    20    1
    30    16    17    2
    31    17    18    1
    32    17    39    1
    33    18    19    2
    34    18    40    1
    35    19    20    1
    36    20    41    1
    37    21    22    1
    38    21    23    1
    39    21    25    1
    40    23    24    1
    41    24    42    1
    42    24    43    1
    43    24    44    1
    44    25    45    1
    45    25    46    1
    46    26    27    1
    47    26    28    1
    48    26    47    1
    49    27    48    1
    50    27    49    1
    51    27    50    1
    52    28    51    1
    53    28    52    1
    54    28    53    1
@<TRIPOS>SUBSTRUCTURE
     1 ZINC001289445798        1 TEMP              0 ****  ****    0 ROOT


##########                                Name:    ZINC000194290865
##########                DOCK_Rotatable_Bonds:                   7
##########                         Heavy_Atoms:                  28
##########                    Molecular_Weight:             387.479
##########                DOCK_Rotatable_Bonds:                   7
##########                       Formal_Charge:          -0.0400003
##########                     HBond_Acceptors:                   7
##########                        HBond_Donors:                   0
##########                         Heavy_Atoms:                  28
##########                          Grid_Score:          -27.997894
##########                     Grid_vdw_energy:          -28.140938
##########                      Grid_es_energy:            0.143044
##########           Internal_energy_repulsive:           29.371754

@<TRIPOS>MOLECULE
ZINC000194290865
 57 59 1 0 0
SMALL
USER_CHARGES


@<TRIPOS>ATOM
      1 C1         -5.8876    3.2388   58.8774 C.3     1  ZINC000194290865   -0.1500
      2 C2         -6.8349    3.0391   57.6927 C.3     1  ZINC000194290865    0.0600
      3 O3         -7.5717    1.8000   57.8655 O.3     1  ZINC000194290865   -0.3600
      4 C4         -8.6068    1.8205   58.7199 C.2     1  ZINC000194290865    0.4700
      5 O5         -8.9874    2.8698   59.1828 O.2     1  ZINC000194290865   -0.4900
      6 C6         -9.2944    0.5350   59.1018 C.3     1  ZINC000194290865   -0.0600
      7 C7         -8.5950   -0.1043   60.3030 C.3     1  ZINC000194290865   -0.0700
      8 C8         -7.1176   -0.3276   59.9736 C.3     1  ZINC000194290865   -0.1700
      9 C9         -8.7129    0.8226   61.5145 C.3     1  ZINC000194290865   -0.1600
     10 C10       -10.7842    0.7973   59.4218 C.3     1  ZINC000194290865   -0.1200
     11 C11       -11.4909    0.4362   58.0911 C.3     1  ZINC000194290865    0.0900
     12 N12       -10.7202   -0.7307   57.6029 N.am    1  ZINC000194290865   -0.6100
     13 C13       -11.2099   -1.8326   57.0009 C.2     1  ZINC000194290865    0.5800
     14 O14       -10.4561   -2.7188   56.6496 O.2     1  ZINC000194290865   -0.5000
     15 C15       -12.6656   -1.9634   56.7677 C.ar    1  ZINC000194290865    0.0100
     16 C16       -13.2780   -1.3758   55.6440 C.ar    1  ZINC000194290865   -0.2200
     17 C17       -14.6636   -1.5241   55.4601 C.ar    1  ZINC000194290865    0.3000
     18 N18       -15.3791   -2.2102   56.3380 N.ar    1  ZINC000194290865   -0.4700
     19 C19       -14.8344   -2.7702   57.3970 C.ar    1  ZINC000194290865    0.2100
     20 C20       -15.7097   -3.5372   58.3544 C.3     1  ZINC000194290865   -0.1100
     21 C21       -13.4754   -2.6776   57.6505 C.ar    1  ZINC000194290865   -0.1800
     22 O22       -14.9791   -0.8712   54.3234 O.3     1  ZINC000194290865   -0.0800
     23 N23       -13.8108   -0.3013   53.7688 N.2     1  ZINC000194290865   -0.2600
     24 C24       -12.7890   -0.5780   54.5202 C.2     1  ZINC000194290865    0.1600
     25 C25       -11.3628   -0.1549   54.2791 C.3     1  ZINC000194290865   -0.0400
     26 C26       -10.6363   -1.2408   53.4831 C.3     1  ZINC000194290865   -0.1500
     27 C27       -11.3461    1.1547   53.4882 C.3     1  ZINC000194290865   -0.1400
     28 C28        -9.3072   -0.4394   57.9092 C.3     1  ZINC000194290865    0.1200
     29 H29        -6.4652    3.2852   59.8006 H       1  ZINC000194290865    0.0700
     30 H30        -5.1882    2.4042   58.9279 H       1  ZINC000194290865    0.0700
     31 H31        -5.3345    4.1690   58.7475 H       1  ZINC000194290865    0.0800
     32 H32        -7.5343    3.8737   57.6421 H       1  ZINC000194290865    0.0700
     33 H33        -6.2574    2.9927   56.7695 H       1  ZINC000194290865    0.0700
     34 H34        -9.0652   -1.0610   60.5303 H       1  ZINC000194290865    0.0900
     35 H35        -7.0336   -0.9880   59.1105 H       1  ZINC000194290865    0.0500
     36 H36        -6.6474    0.6292   59.7462 H       1  ZINC000194290865    0.0800
     37 H37        -6.6193   -0.7831   60.8293 H       1  ZINC000194290865    0.0600
     38 H38        -9.7653    0.9818   61.7492 H       1  ZINC000194290865    0.0500
     39 H39        -8.2146    0.3672   62.3703 H       1  ZINC000194290865    0.0600
     40 H40        -8.2427    1.7794   61.2871 H       1  ZINC000194290865    0.0800
     41 H41       -11.1256    0.1487   60.2286 H       1  ZINC000194290865    0.0900
     42 H42       -10.9462    1.8455   59.6729 H       1  ZINC000194290865    0.0900
     43 H43       -12.5308    0.1629   58.2697 H       1  ZINC000194290865    0.0900
     44 H44       -11.4256    1.2633   57.3841 H       1  ZINC000194290865    0.0900
     45 H45       -15.7569   -4.5817   58.0463 H       1  ZINC000194290865    0.0900
     46 H46       -15.2923   -3.4732   59.3592 H       1  ZINC000194290865    0.0900
     47 H47       -16.7132   -3.1114   58.3499 H       1  ZINC000194290865    0.0900
     48 H48       -13.0498   -3.1455   58.5259 H       1  ZINC000194290865    0.1600
     49 H49       -10.8608   -0.0082   55.2355 H       1  ZINC000194290865    0.1100
     50 H50       -11.1384   -1.3875   52.5267 H       1  ZINC000194290865    0.0700
     51 H51        -9.6048   -0.9348   53.3086 H       1  ZINC000194290865    0.0700
     52 H52       -10.6482   -2.1738   54.0465 H       1  ZINC000194290865    0.0600
     53 H53       -11.8637    1.9283   54.0555 H       1  ZINC000194290865    0.0600
     54 H54       -10.3146    1.4607   53.3140 H       1  ZINC000194290865    0.0700
     55 H55       -11.8482    1.0081   52.5320 H       1  ZINC000194290865    0.0600
     56 H56        -8.8280    0.0233   57.0465 H       1  ZINC000194290865    0.0800
     57 H57        -8.7880   -1.3599   58.1763 H       1  ZINC000194290865    0.1000
@<TRIPOS>BOND
     1     1     2    1
     2     1    29    1
     3     1    30    1
     4     1    31    1
     5     2     3    1
     6     2    32    1
     7     2    33    1
     8     3     4    1
     9     4     5    2
    10     4     6    1
    11     6    28    1
    12     6     7    1
    13     6    10    1
    14     7     8    1
    15     7     9    1
    16     7    34    1
    17     8    35    1
    18     8    36    1
    19     8    37    1
    20     9    38    1
    21     9    39    1
    22     9    40    1
    23    10    11    1
    24    10    41    1
    25    10    42    1
    26    11    12    1
    27    11    43    1
    28    11    44    1
    29    12    13   am
    30    12    28    1
    31    13    14    2
    32    13    15    1
    33    15    21   ar
    34    15    16   ar
    35    16    24    1
    36    16    17   ar
    37    17    18   ar
    38    17    22    1
    39    18    19   ar
    40    19    20    1
    41    19    21   ar
    42    20    45    1
    43    20    46    1
    44    20    47    1
    45    21    48    1
    46    22    23    1
    47    23    24    2
    48    24    25    1
    49    25    26    1
    50    25    27    1
    51    25    49    1
    52    26    50    1
    53    26    51    1
    54    26    52    1
    55    27    53    1
    56    27    54    1
    57    27    55    1
    58    28    56    1
    59    28    57    1
@<TRIPOS>SUBSTRUCTURE
     1 ZINC000194290865        1 TEMP              0 ****  ****    0 ROOT


##########                                Name:    ZINC000054627026
##########                DOCK_Rotatable_Bonds:                   5
##########                         Heavy_Atoms:                  28
##########                    Molecular_Weight:              370.37
##########                DOCK_Rotatable_Bonds:                   5
##########                       Formal_Charge:         6.85453e-07
##########                     HBond_Acceptors:                   8
##########                        HBond_Donors:                   2
##########                         Heavy_Atoms:                  28
##########                          Grid_Score:          -27.995531
##########                     Grid_vdw_energy:          -28.179571
##########                      Grid_es_energy:            0.184040
##########           Internal_energy_repulsive:            7.999964

@<TRIPOS>MOLECULE
ZINC000054627026
 42 46 1 0 0
SMALL
USER_CHARGES


@<TRIPOS>ATOM
      1 O1         -5.9314   -0.2349   52.8963 O.2     1  ZINC000054627026   -0.5200
      2 C2         -6.7865    0.6290   52.9308 C.2     1  ZINC000054627026    0.6100
      3 N3         -6.4372    1.9271   52.8339 N.am    1  ZINC000054627026   -0.6500
      4 C4         -5.0890    2.2813   52.6994 C.ar    1  ZINC000054627026    0.1400
      5 C5         -4.5394    3.2470   53.5401 C.ar    1  ZINC000054627026   -0.0900
      6 C6         -3.2136    3.6046   53.4185 C.ar    1  ZINC000054627026   -0.0900
      7 C7         -2.4189    3.0016   52.4544 C.ar    1  ZINC000054627026    0.0500
      8 N8         -1.0910    3.1359   52.0880 N.pl3   1  ZINC000054627026   -0.5900
      9 C9         -0.8671    2.2658   51.0525 C.2     1  ZINC000054627026    0.3700
     10 C10         0.4179    2.0861   50.3607 C.2     1  ZINC000054627026    0.0200
     11 C11         1.6124    2.6231   50.7386 C.2     1  ZINC000054627026   -0.1200
     12 C12         2.5652    2.1933   49.7973 C.2     1  ZINC000054627026   -0.2200
     13 C13         1.9159    1.4233   48.8995 C.2     1  ZINC000054627026   -0.0100
     14 O14         0.6214    1.3567   49.2455 O.3     1  ZINC000054627026   -0.1700
     15 N15        -1.9743    1.6165   50.7722 N.2     1  ZINC000054627026   -0.4600
     16 C16        -2.9649    2.0257   51.6012 C.ar    1  ZINC000054627026    0.0700
     17 C17        -4.3097    1.6670   51.7371 C.ar    1  ZINC000054627026   -0.0900
     18 C18        -8.2064    0.2559   53.0724 C.2     1  ZINC000054627026   -0.1000
     19 C19        -9.2524    1.1263   53.1941 C.2     1  ZINC000054627026    0.1000
     20 N20       -10.3725    0.3783   53.2984 N.pl3   1  ZINC000054627026   -0.3100
     21 C21       -11.6844    0.8523   53.4411 C.ar    1  ZINC000054627026    0.1300
     22 C22       -11.9299    2.2181   53.4830 C.ar    1  ZINC000054627026   -0.1200
     23 C23       -13.2232    2.6820   53.6231 C.ar    1  ZINC000054627026   -0.1000
     24 C24       -14.2732    1.7875   53.7220 C.ar    1  ZINC000054627026   -0.1100
     25 C25       -14.0317    0.4265   53.6811 C.ar    1  ZINC000054627026   -0.1000
     26 C26       -12.7412   -0.0432   53.5350 C.ar    1  ZINC000054627026   -0.1000
     27 N27        -9.9702   -0.9634   53.2360 N.2     1  ZINC000054627026   -0.0500
     28 N28        -8.6906   -0.9978   53.0977 N.2     1  ZINC000054627026   -0.2000
     29 H29        -7.1197    2.6160   52.8572 H       1  ZINC000054627026    0.4200
     30 H30        -5.1558    3.7183   54.2912 H       1  ZINC000054627026    0.1500
     31 H31        -2.7938    4.3541   54.0732 H       1  ZINC000054627026    0.1300
     32 H32        -0.4408    3.7341   52.4884 H       1  ZINC000054627026    0.4300
     33 H33         1.7924    3.2565   51.5947 H       1  ZINC000054627026    0.1600
     34 H34         3.6179    2.4345   49.7937 H       1  ZINC000054627026    0.1600
     35 H35         2.3649    0.9381   48.0455 H       1  ZINC000054627026    0.2100
     36 H36        -4.7384    0.9151   51.0909 H       1  ZINC000054627026    0.1400
     37 H37        -9.1950    2.2047   53.2051 H       1  ZINC000054627026    0.2100
     38 H38       -11.1102    2.9172   53.4064 H       1  ZINC000054627026    0.1400
     39 H39       -13.4148    3.7443   53.6557 H       1  ZINC000054627026    0.1400
     40 H40       -15.2836    2.1525   53.8319 H       1  ZINC000054627026    0.1400
     41 H41       -14.8537   -0.2696   53.7590 H       1  ZINC000054627026    0.1400
     42 H42       -12.5532   -1.1063   53.5031 H       1  ZINC000054627026    0.1400
@<TRIPOS>BOND
     1     1     2    2
     2     2     3   am
     3     2    18    1
     4     3     4    1
     5     3    29    1
     6     4    17   ar
     7     4     5   ar
     8     5     6   ar
     9     5    30    1
    10     6     7   ar
    11     6    31    1
    12     7    16   ar
    13     7     8    1
    14     8     9    1
    15     8    32    1
    16     9    10    1
    17     9    15    2
    18    10    14    1
    19    10    11    2
    20    11    12    1
    21    11    33    1
    22    12    13    2
    23    12    34    1
    24    13    14    1
    25    13    35    1
    26    15    16    1
    27    16    17   ar
    28    17    36    1
    29    18    28    1
    30    18    19    2
    31    19    20    1
    32    19    37    1
    33    20    21    1
    34    20    27    1
    35    21    26   ar
    36    21    22   ar
    37    22    23   ar
    38    22    38    1
    39    23    24   ar
    40    23    39    1
    41    24    25   ar
    42    24    40    1
    43    25    26   ar
    44    25    41    1
    45    26    42    1
    46    27    28    2
@<TRIPOS>SUBSTRUCTURE
     1 ZINC000054627026        1 TEMP              0 ****  ****    0 ROOT


##########                                Name:    ZINC000464752079
##########                DOCK_Rotatable_Bonds:                   7
##########                         Heavy_Atoms:                  29
##########                    Molecular_Weight:             404.413
##########                DOCK_Rotatable_Bonds:                   7
##########                       Formal_Charge:         7.45058e-08
##########                     HBond_Acceptors:                   8
##########                        HBond_Donors:                   1
##########                         Heavy_Atoms:                  29
##########                          Grid_Score:          -27.981934
##########                     Grid_vdw_energy:          -28.121931
##########                      Grid_es_energy:            0.139997
##########           Internal_energy_repulsive:           18.092720

@<TRIPOS>MOLECULE
ZINC000464752079
 51 54 1 0 0
SMALL
USER_CHARGES


@<TRIPOS>ATOM
      1 C1        -12.9060    1.3355   61.7047 C.3     1  ZINC000464752079   -0.1200
      2 C2        -12.8008    0.0651   60.9007 C.ar    1  ZINC000464752079   -0.0800
      3 C3        -13.8752   -0.8017   60.8345 C.ar    1  ZINC000464752079   -0.1200
      4 C4        -13.7787   -1.9672   60.0969 C.ar    1  ZINC000464752079   -0.1200
      5 C5        -12.6079   -2.2651   59.4255 C.ar    1  ZINC000464752079   -0.1300
      6 C6        -11.5335   -1.3975   59.4911 C.ar    1  ZINC000464752079   -0.0900
      7 C7        -11.6314   -0.2303   60.2249 C.ar    1  ZINC000464752079   -0.0800
      8 C8        -10.4603    0.7153   60.2964 C.3     1  ZINC000464752079    0.2000
      9 H9        -10.8163    1.7362   60.4347 H       1  ZINC000464752079    0.0900
     10 C10        -9.5360    0.3186   61.4668 C.3     1  ZINC000464752079   -0.1200
     11 C11        -8.1177    0.5702   60.8903 C.3     1  ZINC000464752079   -0.1300
     12 C12        -8.3082    0.1643   59.4075 C.3     1  ZINC000464752079    0.1000
     13 N13        -9.6686    0.6250   59.0608 N.am    1  ZINC000464752079   -0.6300
     14 C14       -10.1085    0.9107   57.8193 C.2     1  ZINC000464752079    0.7200
     15 O15       -11.2532    1.2845   57.6511 O.2     1  ZINC000464752079   -0.5700
     16 N16        -9.2798    0.7818   56.7644 N.am    1  ZINC000464752079   -0.7400
     17 C17        -9.7575    1.0940   55.4152 C.3     1  ZINC000464752079    0.1900
     18 C18        -8.6631    0.8144   54.4175 C.ar    1  ZINC000464752079   -0.1200
     19 C19        -7.6323    1.7202   54.2519 C.ar    1  ZINC000464752079   -0.0500
     20 C20        -6.6251    1.4663   53.3353 C.ar    1  ZINC000464752079    0.0100
     21 C21        -6.6516    0.2965   52.5804 C.ar    1  ZINC000464752079    0.0800
     22 C22        -7.6850   -0.6105   52.7490 C.ar    1  ZINC000464752079   -0.1800
     23 C23        -8.6885   -0.3542   53.6708 C.ar    1  ZINC000464752079    0.1400
     24 O24        -9.7028   -1.2446   53.8365 O.3     1  ZINC000464752079   -0.3100
     25 C25       -10.9153   -0.9862   53.1260 C.3     1  ZINC000464752079    0.4100
     26 F26       -10.9741    0.3683   52.7809 F       1  ZINC000464752079   -0.2000
     27 F27       -10.9506   -1.7653   51.9646 F       1  ZINC000464752079   -0.2000
     28 O28        -5.5607    0.2817   51.7600 O.3     1  ZINC000464752079   -0.3000
     29 C29        -5.0866    1.6408   51.7256 C.3     1  ZINC000464752079    0.2100
     30 O30        -5.5167    2.1849   52.9875 O.3     1  ZINC000464752079   -0.3000
     31 H31       -13.2850    2.1367   61.0702 H       1  ZINC000464752079    0.0700
     32 H32       -13.5880    1.1809   62.5409 H       1  ZINC000464752079    0.0700
     33 H33       -11.9213    1.6077   62.0845 H       1  ZINC000464752079    0.0700
     34 H34       -14.7901   -0.5689   61.3590 H       1  ZINC000464752079    0.1200
     35 H35       -14.6181   -2.6449   60.0457 H       1  ZINC000464752079    0.1200
     36 H36       -12.5322   -3.1758   58.8499 H       1  ZINC000464752079    0.1200
     37 H37       -10.6185   -1.6305   58.9668 H       1  ZINC000464752079    0.1100
     38 H38        -9.7179    0.9534   62.3341 H       1  ZINC000464752079    0.0900
     39 H39        -9.6674   -0.7327   61.7227 H       1  ZINC000464752079    0.0800
     40 H40        -7.8422    1.6213   60.9753 H       1  ZINC000464752079    0.0800
     41 H41        -7.3792   -0.0664   61.3778 H       1  ZINC000464752079    0.0900
     42 H42        -7.5691    0.6622   58.7800 H       1  ZINC000464752079    0.0700
     43 H43        -8.2333   -0.9176   59.2977 H       1  ZINC000464752079    0.0700
     44 H44        -8.3669    0.4825   56.8985 H       1  ZINC000464752079    0.4000
     45 H45       -10.6255    0.4760   55.1850 H       1  ZINC000464752079    0.0800
     46 H46       -10.0366    2.1463   55.3629 H       1  ZINC000464752079    0.0800
     47 H47        -7.6123    2.6273   54.8375 H       1  ZINC000464752079    0.1500
     48 H48        -7.7075   -1.5185   52.1646 H       1  ZINC000464752079    0.1500
     49 H49       -11.7673   -1.2374   53.7580 H       1  ZINC000464752079    0.1900
     50 H50        -3.9996    1.6655   51.6484 H       1  ZINC000464752079    0.1400
     51 H51        -5.5428    2.1848   50.8985 H       1  ZINC000464752079    0.0900
@<TRIPOS>BOND
     1     1     2    1
     2     1    31    1
     3     1    32    1
     4     1    33    1
     5     2     7   ar
     6     2     3   ar
     7     3     4   ar
     8     3    34    1
     9     4     5   ar
    10     4    35    1
    11     5     6   ar
    12     5    36    1
    13     6     7   ar
    14     6    37    1
    15     7     8    1
    16     8     9    1
    17     8    13    1
    18     8    10    1
    19    10    11    1
    20    10    38    1
    21    10    39    1
    22    11    12    1
    23    11    40    1
    24    11    41    1
    25    12    13    1
    26    12    42    1
    27    12    43    1
    28    13    14   am
    29    14    15    2
    30    14    16   am
    31    16    17    1
    32    16    44    1
    33    17    18    1
    34    17    45    1
    35    17    46    1
    36    18    23   ar
    37    18    19   ar
    38    19    20   ar
    39    19    47    1
    40    20    30    1
    41    20    21   ar
    42    21    22   ar
    43    21    28    1
    44    22    23   ar
    45    22    48    1
    46    23    24    1
    47    24    25    1
    48    25    26    1
    49    25    27    1
    50    25    49    1
    51    28    29    1
    52    29    30    1
    53    29    50    1
    54    29    51    1
@<TRIPOS>SUBSTRUCTURE
     1 ZINC000464752079        1 TEMP              0 ****  ****    0 ROOT


##########                                Name:    ZINC000156038173
##########                DOCK_Rotatable_Bonds:                  10
##########                         Heavy_Atoms:                  27
##########                    Molecular_Weight:             396.357
##########                DOCK_Rotatable_Bonds:                  10
##########                       Formal_Charge:         -0.00999981
##########                     HBond_Acceptors:                  10
##########                        HBond_Donors:                   1
##########                         Heavy_Atoms:                  27
##########                          Grid_Score:          -27.961237
##########                     Grid_vdw_energy:          -27.666822
##########                      Grid_es_energy:           -0.294414
##########           Internal_energy_repulsive:           22.762135

@<TRIPOS>MOLECULE
ZINC000156038173
 48 48 1 0 0
SMALL
USER_CHARGES


@<TRIPOS>ATOM
      1 C1         -5.4004    3.1159   58.3432 C.3     1  ZINC000156038173    0.0700
      2 N2         -6.7539    2.5671   58.4562 N.am    1  ZINC000156038173   -0.6300
      3 C3         -7.3092    2.2527   59.7751 C.3     1  ZINC000156038173    0.1500
      4 C4         -7.3726    0.7344   59.9529 C.3     1  ZINC000156038173   -0.1400
      5 C5         -7.5458    0.4066   61.4136 C.2     1  ZINC000156038173    0.4700
      6 O6         -6.5868    0.1014   62.0822 O.2     1  ZINC000156038173   -0.5000
      7 O7         -8.7656    0.4537   61.9720 O.3     1  ZINC000156038173   -0.3500
      8 C8         -8.8981    1.2117   63.2032 C.3     1  ZINC000156038173    0.1200
      9 C9         -8.3972    0.3686   64.3776 C.3     1  ZINC000156038173   -0.1800
     10 C10        -8.0683    2.4933   63.1050 C.3     1  ZINC000156038173   -0.1400
     11 C11       -10.3685    1.5719   63.4245 C.3     1  ZINC000156038173   -0.1800
     12 C12        -7.4885    2.3515   57.3470 C.2     1  ZINC000156038173    0.7100
     13 O13        -8.6125    1.8974   57.4409 O.2     1  ZINC000156038173   -0.5700
     14 N14        -6.9772    2.6393   56.1337 N.am    1  ZINC000156038173   -0.7400
     15 C15        -7.7762    2.4065   54.9281 C.3     1  ZINC000156038173    0.1700
     16 H16        -8.4776    1.5918   55.1087 H       1  ZINC000156038173    0.1500
     17 C17        -6.8654    2.0408   53.7845 C.ar    1  ZINC000156038173   -0.1300
     18 C18        -5.7759    2.8375   53.4869 C.ar    1  ZINC000156038173   -0.0700
     19 C19        -4.9393    2.5034   52.4380 C.ar    1  ZINC000156038173   -0.1000
     20 C20        -5.1907    1.3721   51.6849 C.ar    1  ZINC000156038173   -0.1100
     21 C21        -6.2809    0.5722   51.9804 C.ar    1  ZINC000156038173    0.0700
     22 F22        -6.5273   -0.5338   51.2448 F       1  ZINC000156038173   -0.1200
     23 C23        -7.1166    0.9041   53.0358 C.ar    1  ZINC000156038173    0.1000
     24 F24        -8.1814    0.1249   53.3261 F       1  ZINC000156038173   -0.1200
     25 C25        -8.5511    3.6780   54.5763 C.3     1  ZINC000156038173    0.4500
     26 F26        -7.7283    4.7933   54.7671 F       1  ZINC000156038173   -0.1700
     27 F27        -8.9575    3.6215   53.2388 F       1  ZINC000156038173   -0.1600
     28 F28        -9.6761    3.7818   55.4016 F       1  ZINC000156038173   -0.1700
     29 H29        -4.6842    2.2998   58.2483 H       1  ZINC000156038173    0.0600
     30 H30        -5.3402    3.7563   57.4632 H       1  ZINC000156038173    0.0700
     31 H31        -5.1696    3.7001   59.2340 H       1  ZINC000156038173    0.0800
     32 H32        -6.6733    2.6829   60.5488 H       1  ZINC000156038173    0.1000
     33 H33        -8.3127    2.6703   59.8557 H       1  ZINC000156038173    0.0900
     34 H34        -8.2165    0.3375   59.3889 H       1  ZINC000156038173    0.1100
     35 H35        -6.4484    0.2868   59.5872 H       1  ZINC000156038173    0.1100
     36 H36        -7.3497    0.1120   64.2200 H       1  ZINC000156038173    0.0600
     37 H37        -8.4968    0.9378   65.3020 H       1  ZINC000156038173    0.0700
     38 H38        -8.9884   -0.5444   64.4476 H       1  ZINC000156038173    0.0800
     39 H39        -8.4251    3.0940   62.2683 H       1  ZINC000156038173    0.0700
     40 H40        -8.1678    3.0624   64.0292 H       1  ZINC000156038173    0.0800
     41 H41        -7.0207    2.2367   62.9472 H       1  ZINC000156038173    0.0700
     42 H42       -10.9597    0.6589   63.4946 H       1  ZINC000156038173    0.0800
     43 H43       -10.4681    2.1411   64.3489 H       1  ZINC000156038173    0.0700
     44 H44       -10.7254    2.1726   62.5878 H       1  ZINC000156038173    0.0600
     45 H45        -6.0800    3.0004   56.0586 H       1  ZINC000156038173    0.4100
     46 H46        -5.5781    3.7221   54.0740 H       1  ZINC000156038173    0.1400
     47 H47        -4.0887    3.1273   52.2068 H       1  ZINC000156038173    0.1500
     48 H48        -4.5366    1.1125   50.8656 H       1  ZINC000156038173    0.1500
@<TRIPOS>BOND
     1     1     2    1
     2     1    29    1
     3     1    30    1
     4     1    31    1
     5     2     3    1
     6     2    12   am
     7     3     4    1
     8     3    32    1
     9     3    33    1
    10     4     5    1
    11     4    34    1
    12     4    35    1
    13     5     6    2
    14     5     7    1
    15     7     8    1
    16     8     9    1
    17     8    10    1
    18     8    11    1
    19     9    36    1
    20     9    37    1
    21     9    38    1
    22    10    39    1
    23    10    40    1
    24    10    41    1
    25    11    42    1
    26    11    43    1
    27    11    44    1
    28    12    13    2
    29    12    14   am
    30    14    15    1
    31    14    45    1
    32    15    16    1
    33    15    17    1
    34    15    25    1
    35    17    23   ar
    36    17    18   ar
    37    18    19   ar
    38    18    46    1
    39    19    20   ar
    40    19    47    1
    41    20    21   ar
    42    20    48    1
    43    21    22    1
    44    21    23   ar
    45    23    24    1
    46    25    26    1
    47    25    27    1
    48    25    28    1
@<TRIPOS>SUBSTRUCTURE
     1 ZINC000156038173        1 TEMP              0 ****  ****    0 ROOT


##########                                Name:    ZINC000443394081
##########                DOCK_Rotatable_Bonds:                   8
##########                         Heavy_Atoms:                  27
##########                    Molecular_Weight:             389.878
##########                DOCK_Rotatable_Bonds:                   8
##########                       Formal_Charge:          -0.0300003
##########                     HBond_Acceptors:                   6
##########                        HBond_Donors:                   1
##########                         Heavy_Atoms:                  27
##########                          Grid_Score:          -27.947481
##########                     Grid_vdw_energy:          -29.047174
##########                      Grid_es_energy:            1.099692
##########           Internal_energy_repulsive:           31.887928

@<TRIPOS>MOLECULE
ZINC000443394081
 51 53 1 0 0
SMALL
USER_CHARGES


@<TRIPOS>ATOM
      1 C1         -9.4833    4.0033   54.7165 C.3     1  ZINC000443394081    0.0200
      2 O2         -8.6891    2.8877   55.1253 O.3     1  ZINC000443394081   -0.3000
      3 C3         -9.0238    1.6720   54.6161 C.ar    1  ZINC000443394081    0.1000
      4 C4        -10.3045    1.1825   54.7820 C.ar    1  ZINC000443394081   -0.1200
      5 C5        -10.6451   -0.0672   54.2569 C.ar    1  ZINC000443394081   -0.1300
      6 C6        -12.0126   -0.5948   54.4309 C.2     1  ZINC000443394081    0.5700
      7 O7        -12.7514   -0.6975   53.4707 O.2     1  ZINC000443394081   -0.4900
      8 N8        -12.4424   -0.9628   55.6540 N.am    1  ZINC000443394081   -0.6100
      9 C9        -13.7776   -1.5029   55.9690 C.3     1  ZINC000443394081    0.0900
     10 C10       -13.5788   -2.3170   57.2719 C.3     1  ZINC000443394081   -0.1300
     11 C11       -12.5459   -1.4428   58.0309 C.3     1  ZINC000443394081   -0.1000
     12 H12       -13.0433   -0.6295   58.5594 H       1  ZINC000443394081    0.0900
     13 C13       -11.7252   -2.2944   59.0014 C.3     1  ZINC000443394081   -0.1500
     14 C14       -11.6555   -0.8982   56.8943 C.3     1  ZINC000443394081    0.1400
     15 H15       -11.3826    0.1368   57.1006 H       1  ZINC000443394081    0.0800
     16 C16       -10.3933   -1.7534   56.7668 C.3     1  ZINC000443394081    0.0600
     17 O17       -10.7385   -3.0366   56.2411 O.3     1  ZINC000443394081   -0.5400
     18 C18        -9.6889   -0.8155   53.5668 C.ar    1  ZINC000443394081   -0.1000
     19 C19        -8.4123   -0.3216   53.4052 C.ar    1  ZINC000443394081   -0.1800
     20 C20        -8.0754    0.9219   53.9215 C.ar    1  ZINC000443394081    0.1300
     21 O21        -6.8163    1.4042   53.7597 O.3     1  ZINC000443394081   -0.3000
     22 C22        -6.6410    2.4521   52.8040 C.3     1  ZINC000443394081    0.1000
     23 C23        -5.1721    2.6314   52.5190 C.ar    1  ZINC000443394081   -0.0800
     24 C24        -4.5812    1.9428   51.4767 C.ar    1  ZINC000443394081   -0.0800
     25 C25        -3.2335    2.1071   51.2152 C.ar    1  ZINC000443394081   -0.1100
     26 C26        -2.4763    2.9598   51.9962 C.ar    1  ZINC000443394081   -0.1000
     27 C27        -3.0663    3.6491   53.0392 C.ar    1  ZINC000443394081   -0.1100
     28 C28        -4.4159    3.4899   53.2974 C.ar    1  ZINC000443394081   -0.0300
     29 Cl29       -5.1575    4.3553   54.6069 Cl      1  ZINC000443394081   -0.0700
     30 H30        -9.1104    4.9092   55.1942 H       1  ZINC000443394081    0.1000
     31 H31        -9.4252    4.1132   53.6337 H       1  ZINC000443394081    0.0600
     32 H32       -10.5201    3.8381   55.0099 H       1  ZINC000443394081    0.0600
     33 H33       -11.0410    1.7640   55.3164 H       1  ZINC000443394081    0.1500
     34 H34       -14.4861   -0.6911   56.1333 H       1  ZINC000443394081    0.0700
     35 H35       -14.1234   -2.1524   55.1649 H       1  ZINC000443394081    0.0800
     36 H36       -14.5114   -2.3936   57.8307 H       1  ZINC000443394081    0.0900
     37 H37       -13.1715   -3.3049   57.0569 H       1  ZINC000443394081    0.0800
     38 H38       -11.2129   -3.0824   58.4495 H       1  ZINC000443394081    0.0600
     39 H39       -10.9899   -1.6658   59.5040 H       1  ZINC000443394081    0.0600
     40 H40       -12.3879   -2.7415   59.7423 H       1  ZINC000443394081    0.0600
     41 H41        -9.6887   -1.2632   56.0951 H       1  ZINC000443394081    0.0600
     42 H42        -9.9356   -1.8741   57.7485 H       1  ZINC000443394081    0.0400
     43 H43       -11.1987   -3.0026   55.3912 H       1  ZINC000443394081    0.3700
     44 H44        -9.9496   -1.7815   53.1602 H       1  ZINC000443394081    0.1400
     45 H45        -7.6737   -0.9015   52.8717 H       1  ZINC000443394081    0.1400
     46 H46        -7.1611    2.1933   51.8816 H       1  ZINC000443394081    0.0800
     47 H47        -7.0495    3.3803   53.2034 H       1  ZINC000443394081    0.0800
     48 H48        -5.1722    1.2758   50.8665 H       1  ZINC000443394081    0.1400
     49 H49        -2.7722    1.5687   50.4005 H       1  ZINC000443394081    0.1300
     50 H50        -1.4235    3.0872   51.7920 H       1  ZINC000443394081    0.1300
     51 H51        -2.4745    4.3155   53.6494 H       1  ZINC000443394081    0.1400
@<TRIPOS>BOND
     1     1     2    1
     2     1    30    1
     3     1    31    1
     4     1    32    1
     5     2     3    1
     6     3    20   ar
     7     3     4   ar
     8     4     5   ar
     9     4    33    1
    10     5     6    1
    11     5    18   ar
    12     6     7    2
    13     6     8   am
    14     8    14    1
    15     8     9    1
    16     9    10    1
    17     9    34    1
    18     9    35    1
    19    10    11    1
    20    10    36    1
    21    10    37    1
    22    11    12    1
    23    11    13    1
    24    11    14    1
    25    13    38    1
    26    13    39    1
    27    13    40    1
    28    14    15    1
    29    14    16    1
    30    16    17    1
    31    16    41    1
    32    16    42    1
    33    17    43    1
    34    18    19   ar
    35    18    44    1
    36    19    20   ar
    37    19    45    1
    38    20    21    1
    39    21    22    1
    40    22    23    1
    41    22    46    1
    42    22    47    1
    43    23    28   ar
    44    23    24   ar
    45    24    25   ar
    46    24    48    1
    47    25    26   ar
    48    25    49    1
    49    26    27   ar
    50    26    50    1
    51    27    28   ar
    52    27    51    1
    53    28    29    1
@<TRIPOS>SUBSTRUCTURE
     1 ZINC000443394081        1 TEMP              0 ****  ****    0 ROOT


##########                                Name:    ZINC000186316242
##########                DOCK_Rotatable_Bonds:                   7
##########                         Heavy_Atoms:                  28
##########                    Molecular_Weight:             392.525
##########                DOCK_Rotatable_Bonds:                   7
##########                       Formal_Charge:         -0.00999981
##########                     HBond_Acceptors:                   6
##########                        HBond_Donors:                   0
##########                         Heavy_Atoms:                  28
##########                          Grid_Score:          -27.941219
##########                     Grid_vdw_energy:          -26.966368
##########                      Grid_es_energy:           -0.974851
##########           Internal_energy_repulsive:           37.325264

@<TRIPOS>MOLECULE
ZINC000186316242
 52 55 1 0 0
SMALL
USER_CHARGES


@<TRIPOS>ATOM
      1 C1        -12.4051   -2.1361   59.7274 C.3     1  ZINC000186316242   -0.1500
      2 C2        -11.2558   -1.2810   60.2648 C.3     1  ZINC000186316242    0.1000
      3 N3        -10.3294   -0.9669   59.1743 N.am    1  ZINC000186316242   -0.5900
      4 C4         -9.1853   -0.3030   59.4322 C.2     1  ZINC000186316242    0.5900
      5 O5         -8.4162   -0.0421   58.5268 O.2     1  ZINC000186316242   -0.5000
      6 C6         -8.8660    0.1067   60.8110 C.2     1  ZINC000186316242    0.0100
      7 C7         -7.6563   -0.1409   61.3882 C.2     1  ZINC000186316242   -0.2100
      8 S8         -7.6629    0.4790   62.9821 S.3     1  ZINC000186316242    0.2000
      9 C9         -9.3168    1.0435   62.7762 C.2     1  ZINC000186316242    0.0700
     10 C10       -10.1111    1.7509   63.8041 C.ar    1  ZINC000186316242    0.1900
     11 C11        -9.5576    1.9928   65.0609 C.ar    1  ZINC000186316242   -0.1500
     12 C12       -10.3132    2.6564   66.0121 C.ar    1  ZINC000186316242   -0.0700
     13 C13       -11.5983    3.0570   65.6756 C.ar    1  ZINC000186316242   -0.1600
     14 C14       -12.0850    2.7844   64.4097 C.ar    1  ZINC000186316242    0.1100
     15 N15       -11.3440    2.1558   63.5210 N.ar    1  ZINC000186316242   -0.4500
     16 N16        -9.7307    0.7486   61.5822 N.2     1  ZINC000186316242   -0.3900
     17 C17       -10.6469   -1.3742   57.8033 C.3     1  ZINC000186316242    0.1400
     18 H18       -11.6284   -1.8467   57.7674 H       1  ZINC000186316242    0.1000
     19 C19        -9.5662   -2.3408   57.2669 C.3     1  ZINC000186316242   -0.1300
     20 C20        -9.4012   -1.8926   55.7930 C.3     1  ZINC000186316242    0.0400
     21 N21        -9.5340   -0.4153   55.8701 N.3     1  ZINC000186316242   -0.4900
     22 C22        -9.8827    0.1510   54.5603 C.3     1  ZINC000186316242    0.0800
     23 C23        -8.6334    0.3079   53.7322 C.ar    1  ZINC000186316242   -0.0700
     24 C24        -7.9320    1.4988   53.7582 C.ar    1  ZINC000186316242   -0.1000
     25 C25        -6.7860    1.6427   52.9986 C.ar    1  ZINC000186316242   -0.1200
     26 C26        -6.3412    0.5956   52.2133 C.ar    1  ZINC000186316242   -0.1200
     27 C27        -7.0422   -0.5956   52.1881 C.ar    1  ZINC000186316242   -0.1200
     28 C28        -8.1858   -0.7411   52.9509 C.ar    1  ZINC000186316242   -0.1100
     29 C29       -10.6046   -0.1571   56.8607 C.3     1  ZINC000186316242    0.0400
     30 H30       -13.0944   -2.3698   60.5388 H       1  ZINC000186316242    0.0700
     31 H31       -12.9337   -1.5864   58.9487 H       1  ZINC000186316242    0.0500
     32 H32       -12.0060   -3.0614   59.3119 H       1  ZINC000186316242    0.0400
     33 H33       -11.6549   -0.3557   60.6803 H       1  ZINC000186316242    0.1200
     34 H34       -10.7272   -1.8307   61.0436 H       1  ZINC000186316242    0.0700
     35 H35        -6.8275   -0.6469   60.9154 H       1  ZINC000186316242    0.1900
     36 H36        -8.5536    1.6665   65.2891 H       1  ZINC000186316242    0.1400
     37 H37        -9.9116    2.8577   66.9942 H       1  ZINC000186316242    0.1400
     38 H38       -12.2132    3.5765   66.3957 H       1  ZINC000186316242    0.1400
     39 H39       -13.0851    3.0946   64.1452 H       1  ZINC000186316242    0.1600
     40 H40        -8.6319   -2.2171   57.8147 H       1  ZINC000186316242    0.0900
     41 H41        -9.9117   -3.3733   57.3198 H       1  ZINC000186316242    0.0700
     42 H42        -8.4179   -2.1713   55.4140 H       1  ZINC000186316242    0.0800
     43 H43       -10.1889   -2.3178   55.1712 H       1  ZINC000186316242    0.0400
     44 H44       -10.5762   -0.5165   54.0488 H       1  ZINC000186316242    0.0400
     45 H45       -10.3515    1.1252   54.6987 H       1  ZINC000186316242    0.0800
     46 H46        -8.2795    2.3169   54.3716 H       1  ZINC000186316242    0.1200
     47 H47        -6.2385    2.5733   53.0184 H       1  ZINC000186316242    0.1200
     48 H48        -5.4463    0.7082   51.6193 H       1  ZINC000186316242    0.1200
     49 H49        -6.6948   -1.4137   51.5744 H       1  ZINC000186316242    0.1200
     50 H50        -8.7333   -1.6718   52.9313 H       1  ZINC000186316242    0.1200
     51 H51       -11.5621   -0.0454   56.3520 H       1  ZINC000186316242    0.0500
     52 H52       -10.3754    0.7444   57.4287 H       1  ZINC000186316242    0.0800
@<TRIPOS>BOND
     1     1     2    1
     2     1    30    1
     3     1    31    1
     4     1    32    1
     5     2     3    1
     6     2    33    1
     7     2    34    1
     8     3     4   am
     9     3    17    1
    10     4     5    2
    11     4     6    1
    12     6    16    1
    13     6     7    2
    14     7     8    1
    15     7    35    1
    16     8     9    1
    17     9    10    1
    18     9    16    2
    19    10    15   ar
    20    10    11   ar
    21    11    12   ar
    22    11    36    1
    23    12    13   ar
    24    12    37    1
    25    13    14   ar
    26    13    38    1
    27    14    15   ar
    28    14    39    1
    29    17    18    1
    30    17    29    1
    31    17    19    1
    32    19    20    1
    33    19    40    1
    34    19    41    1
    35    20    21    1
    36    20    42    1
    37    20    43    1
    38    21    22    1
    39    21    29    1
    40    22    23    1
    41    22    44    1
    42    22    45    1
    43    23    28   ar
    44    23    24   ar
    45    24    25   ar
    46    24    46    1
    47    25    26   ar
    48    25    47    1
    49    26    27   ar
    50    26    48    1
    51    27    28   ar
    52    27    49    1
    53    28    50    1
    54    29    51    1
    55    29    52    1
@<TRIPOS>SUBSTRUCTURE
     1 ZINC000186316242        1 TEMP              0 ****  ****    0 ROOT


##########                                Name:    ZINC000176150038
##########                DOCK_Rotatable_Bonds:                   4
##########                         Heavy_Atoms:                  23
##########                    Molecular_Weight:             333.712
##########                DOCK_Rotatable_Bonds:                   4
##########                       Formal_Charge:        -2.23517e-07
##########                     HBond_Acceptors:                  10
##########                        HBond_Donors:                   1
##########                         Heavy_Atoms:                  23
##########                          Grid_Score:          -27.939608
##########                     Grid_vdw_energy:          -27.788609
##########                      Grid_es_energy:           -0.151000
##########           Internal_energy_repulsive:           25.513920

@<TRIPOS>MOLECULE
ZINC000176150038
 32 34 1 0 0
SMALL
USER_CHARGES


@<TRIPOS>ATOM
      1 C1         -9.8797    1.2255   56.2722 C.3     1  ZINC000176150038   -0.0900
      2 C2         -9.7147    0.2291   55.1537 C.2     1  ZINC000176150038    0.2600
      3 N3        -10.1260   -1.0120   55.1543 N.2     1  ZINC000176150038   -0.3300
      4 N4         -9.8272   -1.5884   54.0462 N.2     1  ZINC000176150038   -0.0300
      5 N5         -9.2109   -0.7653   53.2681 N.2     1  ZINC000176150038   -0.0700
      6 N6         -9.1196    0.4539   53.9623 N.pl3   1  ZINC000176150038   -0.3300
      7 C7         -8.5297    1.6463   53.5163 C.ar    1  ZINC000176150038    0.1400
      8 C8         -9.3151    2.7696   53.2965 C.ar    1  ZINC000176150038   -0.1000
      9 C9         -8.7359    3.9452   52.8574 C.ar    1  ZINC000176150038   -0.1100
     10 C10        -7.3723    4.0062   52.6358 C.ar    1  ZINC000176150038    0.1000
     11 F11        -6.8085    5.1568   52.2071 F       1  ZINC000176150038   -0.1200
     12 C12        -6.5805    2.8830   52.8546 C.ar    1  ZINC000176150038    0.1300
     13 N13        -5.2006    2.9440   52.6306 N.am    1  ZINC000176150038   -0.6500
     14 C14        -4.6298    2.1339   51.7172 C.2     1  ZINC000176150038    0.5700
     15 O15        -5.3134    1.3506   51.0882 O.2     1  ZINC000176150038   -0.4800
     16 C16        -3.1671    2.1985   51.4796 C.ar    1  ZINC000176150038    0.1400
     17 N17        -2.6123    1.5125   50.4828 N.ar    1  ZINC000176150038   -0.4800
     18 C18        -1.3156    1.5675   50.2686 C.ar    1  ZINC000176150038    0.3000
     19 N19        -0.5137    2.2955   51.0214 N.ar    1  ZINC000176150038   -0.4800
     20 C20        -0.9852    3.0061   52.0312 C.ar    1  ZINC000176150038    0.1700
     21 C21        -2.3491    2.9848   52.2945 C.ar    1  ZINC000176150038   -0.1000
     22 Cl22       -3.0173    3.9013   53.6088 Cl      1  ZINC000176150038    0.0100
     23 C23        -7.1604    1.7045   53.3002 C.ar    1  ZINC000176150038   -0.0800
     24 H24       -10.8216    1.7597   56.1468 H       1  ZINC000176150038    0.1100
     25 H25        -9.8837    0.7015   57.2280 H       1  ZINC000176150038    0.1100
     26 H26        -9.0534    1.9359   56.2507 H       1  ZINC000176150038    0.0900
     27 H27       -10.3804    2.7247   53.4683 H       1  ZINC000176150038    0.1500
     28 H28        -9.3493    4.8176   52.6869 H       1  ZINC000176150038    0.1600
     29 H29        -4.6549    3.5694   53.1326 H       1  ZINC000176150038    0.4300
     30 H30        -0.8949    0.9993   49.4521 H       1  ZINC000176150038    0.2200
     31 H31        -0.3194    3.5987   52.6412 H       1  ZINC000176150038    0.1900
     32 H32        -6.5483    0.8312   53.4709 H       1  ZINC000176150038    0.1700
@<TRIPOS>BOND
     1     1     2    1
     2     1    24    1
     3     1    25    1
     4     1    26    1
     5     2     6    1
     6     2     3    2
     7     3     4    1
     8     4     5    2
     9     5     6    1
    10     6     7    1
    11     7    23   ar
    12     7     8   ar
    13     8     9   ar
    14     8    27    1
    15     9    10   ar
    16     9    28    1
    17    10    11    1
    18    10    12   ar
    19    12    13    1
    20    12    23   ar
    21    13    14   am
    22    13    29    1
    23    14    15    2
    24    14    16    1
    25    16    21   ar
    26    16    17   ar
    27    17    18   ar
    28    18    19   ar
    29    18    30    1
    30    19    20   ar
    31    20    21   ar
    32    20    31    1
    33    21    22    1
    34    23    32    1
@<TRIPOS>SUBSTRUCTURE
     1 ZINC000176150038        1 TEMP              0 ****  ****    0 ROOT


##########                                Name:    ZINC000846412382
##########                DOCK_Rotatable_Bonds:                   6
##########                         Heavy_Atoms:                  26
##########                    Molecular_Weight:             370.475
##########                DOCK_Rotatable_Bonds:                   6
##########                       Formal_Charge:               -0.03
##########                     HBond_Acceptors:                   7
##########                        HBond_Donors:                   4
##########                         Heavy_Atoms:                  26
##########                          Grid_Score:          -27.927994
##########                     Grid_vdw_energy:          -28.921017
##########                      Grid_es_energy:            0.993022
##########           Internal_energy_repulsive:           18.274921

@<TRIPOS>MOLECULE
ZINC000846412382
 48 50 1 0 0
SMALL
USER_CHARGES


@<TRIPOS>ATOM
      1 C1         -8.7768    2.0308   54.5658 C.3     1  ZINC000846412382   -0.1400
      2 C2         -8.0173    1.0570   53.7022 C.2     1  ZINC000846412382    0.0300
      3 C3         -8.4645   -0.1815   53.4589 C.2     1  ZINC000846412382   -0.2700
      4 C4         -9.7170   -0.7358   53.9868 C.2     1  ZINC000846412382    0.6000
      5 O5        -10.6877   -0.8447   53.2613 O.2     1  ZINC000846412382   -0.5200
      6 N6         -9.7917   -1.1244   55.2752 N.am    1  ZINC000846412382   -0.7100
      7 C7        -11.0423   -1.6760   55.8026 C.3     1  ZINC000846412382    0.1200
      8 H8        -11.6799   -1.9868   54.9749 H       1  ZINC000846412382    0.1000
      9 C9        -10.7330   -2.8839   56.6894 C.3     1  ZINC000846412382   -0.1700
     10 C10       -11.7626   -0.6083   56.6282 C.3     1  ZINC000846412382    0.1700
     11 C11       -12.3395    0.4565   55.6931 C.3     1  ZINC000846412382   -0.1400
     12 O12       -10.8370    0.0012   57.5304 O.3     1  ZINC000846412382   -0.5500
     13 C13       -12.8803   -1.2478   57.4112 C.ar    1  ZINC000846412382   -0.1200
     14 C14       -12.8192   -1.2935   58.7914 C.ar    1  ZINC000846412382   -0.1100
     15 C15       -13.8443   -1.8801   59.5096 C.ar    1  ZINC000846412382   -0.1200
     16 C16       -14.9309   -2.4205   58.8476 C.ar    1  ZINC000846412382   -0.1200
     17 C17       -14.9923   -2.3741   57.4674 C.ar    1  ZINC000846412382   -0.1200
     18 C18       -13.9692   -1.7837   56.7494 C.ar    1  ZINC000846412382   -0.1000
     19 S19        -7.3466   -1.0506   52.4212 S.3     1  ZINC000846412382    0.2000
     20 C20        -6.2662    0.3345   52.3418 C.ar    1  ZINC000846412382    0.1400
     21 N21        -5.1009    0.5104   51.7086 N.ar    1  ZINC000846412382   -0.5300
     22 C22        -4.4515    1.6493   51.7878 C.ar    1  ZINC000846412382    0.3900
     23 C23        -3.1431    1.7940   51.0543 C.3     1  ZINC000846412382   -0.0900
     24 N24        -4.9070    2.6720   52.4883 N.ar    1  ZINC000846412382   -0.5800
     25 C25        -6.0513    2.5970   53.1506 C.ar    1  ZINC000846412382    0.5100
     26 N26        -6.5125    3.6757   53.8777 N.pl3   1  ZINC000846412382   -0.8300
     27 C27        -6.8009    1.3881   53.0963 C.ar    1  ZINC000846412382   -0.2500
     28 H28        -9.3938    2.6709   53.9353 H       1  ZINC000846412382    0.0800
     29 H29        -9.4135    1.4816   55.2593 H       1  ZINC000846412382    0.1100
     30 H30        -8.0723    2.6443   55.1275 H       1  ZINC000846412382    0.0700
     31 H31        -9.0176   -1.0388   55.8533 H       1  ZINC000846412382    0.4000
     32 H32       -10.0954   -2.5730   57.5171 H       1  ZINC000846412382    0.0600
     33 H33       -11.6634   -3.2943   57.0818 H       1  ZINC000846412382    0.0800
     34 H34       -10.2197   -3.6445   56.1012 H       1  ZINC000846412382    0.0700
     35 H35       -13.0456   -0.0083   55.0049 H       1  ZINC000846412382    0.0700
     36 H36       -12.8526    1.2173   56.2812 H       1  ZINC000846412382    0.0700
     37 H37       -11.5311    0.9191   55.1268 H       1  ZINC000846412382    0.0700
     38 H38       -10.1494    0.5234   57.0949 H       1  ZINC000846412382    0.3800
     39 H39       -11.9703   -0.8712   59.3086 H       1  ZINC000846412382    0.1300
     40 H40       -13.7963   -1.9164   60.5879 H       1  ZINC000846412382    0.1200
     41 H41       -15.7314   -2.8795   59.4087 H       1  ZINC000846412382    0.1200
     42 H42       -15.8410   -2.7967   56.9501 H       1  ZINC000846412382    0.1200
     43 H43       -14.0172   -1.7474   55.6711 H       1  ZINC000846412382    0.1300
     44 H44        -3.3298    2.1727   50.0494 H       1  ZINC000846412382    0.0900
     45 H45        -2.5004    2.4912   51.5918 H       1  ZINC000846412382    0.0900
     46 H46        -2.6526    0.8227   50.9911 H       1  ZINC000846412382    0.0900
     47 H47        -5.8928    4.3591   54.1775 H       1  ZINC000846412382    0.4100
     48 H48        -7.4562    3.7504   54.0888 H       1  ZINC000846412382    0.4200
@<TRIPOS>BOND
     1     1     2    1
     2     1    28    1
     3     1    29    1
     4     1    30    1
     5     2    27    1
     6     2     3    2
     7     3     4    1
     8     3    19    1
     9     4     5    2
    10     4     6   am
    11     6     7    1
    12     6    31    1
    13     7     8    1
    14     7     9    1
    15     7    10    1
    16     9    32    1
    17     9    33    1
    18     9    34    1
    19    10    11    1
    20    10    12    1
    21    10    13    1
    22    11    35    1
    23    11    36    1
    24    11    37    1
    25    12    38    1
    26    13    18   ar
    27    13    14   ar
    28    14    15   ar
    29    14    39    1
    30    15    16   ar
    31    15    40    1
    32    16    17   ar
    33    16    41    1
    34    17    18   ar
    35    17    42    1
    36    18    43    1
    37    19    20    1
    38    20    27   ar
    39    20    21   ar
    40    21    22   ar
    41    22    23    1
    42    22    24   ar
    43    23    44    1
    44    23    45    1
    45    23    46    1
    46    24    25   ar
    47    25    26    1
    48    25    27   ar
    49    26    47    1
    50    26    48    1
@<TRIPOS>SUBSTRUCTURE
     1 ZINC000846412382        1 TEMP              0 ****  ****    0 ROOT


##########                                Name:    ZINC001079355651
##########                DOCK_Rotatable_Bonds:                   5
##########                         Heavy_Atoms:                  25
##########                    Molecular_Weight:             353.851
##########                DOCK_Rotatable_Bonds:                   5
##########                       Formal_Charge:           0.0199997
##########                     HBond_Acceptors:                   5
##########                        HBond_Donors:                   1
##########                         Heavy_Atoms:                  25
##########                          Grid_Score:          -27.907064
##########                     Grid_vdw_energy:          -28.191549
##########                      Grid_es_energy:            0.284485
##########           Internal_energy_repulsive:            4.997024

@<TRIPOS>MOLECULE
ZINC001079355651
 45 47 1 0 0
SMALL
USER_CHARGES


@<TRIPOS>ATOM
      1 C1         -9.7589   -1.5939   54.7773 C.3     1  ZINC001079355651   -0.1500
      2 C2        -10.0241   -0.7200   53.5497 C.3     1  ZINC001079355651   -0.1000
      3 H3         -9.9662   -1.3181   52.6404 H       1  ZINC001079355651    0.0900
      4 C4         -9.0115    0.4439   53.4913 C.3     1  ZINC001079355651    0.0300
      5 N5         -9.7967    1.5980   52.9830 N.3     1  ZINC001079355651   -0.5100
      6 C6         -9.1466    2.8695   53.3270 C.3     1  ZINC001079355651    0.1600
      7 C7         -7.7145    2.7939   52.9953 C.1     1  ZINC001079355651   -0.1400
      8 C8         -6.5723    2.7336   52.7307 C.1     1  ZINC001079355651   -0.1300
      9 C9         -5.1791    2.6601   52.4080 C.ar    1  ZINC001079355651    0.0300
     10 C10        -4.7590    1.9686   51.2713 C.ar    1  ZINC001079355651   -0.0900
     11 C11        -3.4150    1.9009   50.9652 C.ar    1  ZINC001079355651   -0.1000
     12 C12        -2.4845    2.5168   51.7823 C.ar    1  ZINC001079355651   -0.1000
     13 C13        -2.8943    3.2044   52.9123 C.ar    1  ZINC001079355651   -0.0300
     14 Cl14       -1.7189    3.9737   53.9323 Cl      1  ZINC001079355651   -0.0600
     15 C15        -4.2366    3.2845   53.2259 C.ar    1  ZINC001079355651   -0.0900
     16 C16       -11.1121    1.4718   53.6617 C.3     1  ZINC001079355651    0.0200
     17 C17       -11.4071   -0.0459   53.6606 C.3     1  ZINC001079355651    0.1500
     18 H18       -11.8967   -0.3371   54.5899 H       1  ZINC001079355651    0.1000
     19 N19       -12.2450   -0.4006   52.5123 N.am    1  ZINC001079355651   -0.7100
     20 C20       -13.5861   -0.2991   52.5999 C.2     1  ZINC001079355651    0.5600
     21 O21       -14.1002    0.0880   53.6306 O.2     1  ZINC001079355651   -0.5300
     22 C22       -14.4335   -0.6595   51.4392 C.ar    1  ZINC001079355651   -0.0900
     23 C23       -13.8608   -1.0173   50.2150 C.ar    1  ZINC001079355651   -0.1400
     24 C24       -14.6885   -1.3460   49.1590 C.ar    1  ZINC001079355651    0.1000
     25 N25       -15.9996   -1.3253   49.2946 N.ar    1  ZINC001079355651   -0.4700
     26 C26       -16.5799   -0.9940   50.4308 C.ar    1  ZINC001079355651    0.1000
     27 C27       -15.8281   -0.6568   51.5395 C.ar    1  ZINC001079355651   -0.1200
     28 H28       -10.5113   -2.3807   54.8326 H       1  ZINC001079355651    0.0600
     29 H29        -8.7690   -2.0428   54.6967 H       1  ZINC001079355651    0.0700
     30 H30        -9.8076   -0.9807   55.6772 H       1  ZINC001079355651    0.0600
     31 H31        -8.6210    0.6584   54.4861 H       1  ZINC001079355651    0.0600
     32 H32        -8.1981    0.2060   52.8058 H       1  ZINC001079355651    0.0900
     33 H33        -9.6085    3.6786   52.7611 H       1  ZINC001079355651    0.0700
     34 H34        -9.2628    3.0601   54.3940 H       1  ZINC001079355651    0.1100
     35 H35        -5.4842    1.4867   50.6324 H       1  ZINC001079355651    0.1300
     36 H36        -3.0890    1.3655   50.0858 H       1  ZINC001079355651    0.1400
     37 H37        -1.4339    2.4608   51.5384 H       1  ZINC001079355651    0.1400
     38 H38        -4.5555    3.8210   54.1072 H       1  ZINC001079355651    0.1400
     39 H39       -11.0504    1.8472   54.6832 H       1  ZINC001079355651    0.0600
     40 H40       -11.8804    2.0079   53.1045 H       1  ZINC001079355651    0.0900
     41 H41       -11.8346   -0.7084   51.6891 H       1  ZINC001079355651    0.4000
     42 H42       -12.7875   -1.0361   50.0966 H       1  ZINC001079355651    0.1400
     43 H43       -14.2557   -1.6235   48.2092 H       1  ZINC001079355651    0.1600
     44 H44       -17.6579   -0.9903   50.4969 H       1  ZINC001079355651    0.1700
     45 H45       -16.3104   -0.3863   52.4673 H       1  ZINC001079355651    0.1500
@<TRIPOS>BOND
     1     1     2    1
     2     1    28    1
     3     1    29    1
     4     1    30    1
     5     2     3    1
     6     2    17    1
     7     2     4    1
     8     4     5    1
     9     4    31    1
    10     4    32    1
    11     5     6    1
    12     5    16    1
    13     6     7    1
    14     6    33    1
    15     6    34    1
    16     7     8    3
    17     8     9    1
    18     9    15   ar
    19     9    10   ar
    20    10    11   ar
    21    10    35    1
    22    11    12   ar
    23    11    36    1
    24    12    13   ar
    25    12    37    1
    26    13    14    1
    27    13    15   ar
    28    15    38    1
    29    16    17    1
    30    16    39    1
    31    16    40    1
    32    17    18    1
    33    17    19    1
    34    19    20   am
    35    19    41    1
    36    20    21    2
    37    20    22    1
    38    22    27   ar
    39    22    23   ar
    40    23    24   ar
    41    23    42    1
    42    24    25   ar
    43    24    43    1
    44    25    26   ar
    45    26    27   ar
    46    26    44    1
    47    27    45    1
@<TRIPOS>SUBSTRUCTURE
     1 ZINC001079355651        1 TEMP              0 ****  ****    0 ROOT


##########                                Name:    ZINC000892389374
##########                DOCK_Rotatable_Bonds:                   6
##########                         Heavy_Atoms:                  25
##########                    Molecular_Weight:             371.383
##########                DOCK_Rotatable_Bonds:                   6
##########                       Formal_Charge:          -0.0199998
##########                     HBond_Acceptors:                   9
##########                        HBond_Donors:                   1
##########                         Heavy_Atoms:                  25
##########                          Grid_Score:          -27.906477
##########                     Grid_vdw_energy:          -28.202803
##########                      Grid_es_energy:            0.296326
##########           Internal_energy_repulsive:            8.816384

@<TRIPOS>MOLECULE
ZINC000892389374
 41 43 1 0 0
SMALL
USER_CHARGES


@<TRIPOS>ATOM
      1 C1         -7.9827    4.6853   50.7058 C.3     1  ZINC000892389374   -0.1000
      2 C2         -8.3044    3.5557   51.6502 C.ar    1  ZINC000892389374   -0.1800
      3 C3         -9.6164    3.1677   51.8403 C.ar    1  ZINC000892389374   -0.0400
      4 C4         -9.9153    2.1322   52.7050 C.ar    1  ZINC000892389374   -0.2100
      5 C5         -8.8969    1.4782   53.3865 C.ar    1  ZINC000892389374    0.2200
      6 N6         -9.2008    0.4296   54.2621 N.am    1  ZINC000892389374   -0.5700
      7 C7         -9.7319    0.5803   55.6255 C.3     1  ZINC000892389374    0.0600
      8 C8         -9.8776   -0.8700   56.1250 C.3     1  ZINC000892389374    0.0400
      9 O9         -9.4183   -1.6775   55.0025 O.3     1  ZINC000892389374   -0.3200
     10 C10        -9.0610   -0.8757   53.9929 C.2     1  ZINC000892389374    0.6400
     11 O11        -8.6399   -1.2926   52.9321 O.2     1  ZINC000892389374   -0.5000
     12 C12        -7.5779    1.8653   53.1980 C.ar    1  ZINC000892389374   -0.2300
     13 C13        -7.2801    2.9017   52.3246 C.ar    1  ZINC000892389374    0.2400
     14 N14        -5.9538    3.2946   52.1321 N.pl3   1  ZINC000892389374   -0.7400
     15 C15        -4.9802    2.3449   51.5876 C.3     1  ZINC000892389374    0.2000
     16 C16        -3.5917    2.7516   52.0091 C.2     1  ZINC000892389374   -0.2400
     17 C17        -2.4555    2.4401   51.3782 C.2     1  ZINC000892389374    0.0600
     18 N18        -1.3663    2.9163   51.9468 N.2     1  ZINC000892389374   -0.4500
     19 C19        -1.5204    3.6123   53.0223 C.2     1  ZINC000892389374    0.0200
     20 C20        -0.4001    4.2378   53.8128 C.3     1  ZINC000892389374   -0.0900
     21 C21        -0.7447    4.2003   55.3030 C.3     1  ZINC000892389374    0.4600
     22 F22        -0.9827    2.8781   55.6936 F       1  ZINC000892389374   -0.1800
     23 F23         0.3236    4.7197   56.0419 F       1  ZINC000892389374   -0.1800
     24 F24        -1.8903    4.9688   55.5362 F       1  ZINC000892389374   -0.1700
     25 S25        -3.1800    3.7283   53.4167 S.3     1  ZINC000892389374    0.1900
     26 H26        -7.8235    4.2869   49.7038 H       1  ZINC000892389374    0.0700
     27 H27        -8.8126    5.3917   50.6882 H       1  ZINC000892389374    0.0700
     28 H28        -7.0794    5.1941   51.0423 H       1  ZINC000892389374    0.0600
     29 H29       -10.4102    3.6749   51.3122 H       1  ZINC000892389374    0.1300
     30 H30       -10.9422    1.8312   52.8514 H       1  ZINC000892389374    0.1200
     31 H31        -9.0300    1.1319   56.2509 H       1  ZINC000892389374    0.1000
     32 H32       -10.7015    1.0778   55.6058 H       1  ZINC000892389374    0.1000
     33 H33        -9.2488   -1.0382   56.9992 H       1  ZINC000892389374    0.1100
     34 H34       -10.9198   -1.0923   56.3543 H       1  ZINC000892389374    0.1100
     35 H35        -6.7843    1.3585   53.7270 H       1  ZINC000892389374    0.1600
     36 H36        -5.6771    4.1963   52.3588 H       1  ZINC000892389374    0.4000
     37 H37        -5.1967    1.3457   51.9657 H       1  ZINC000892389374    0.0900
     38 H38        -5.0436    2.3432   50.4994 H       1  ZINC000892389374    0.0800
     39 H39        -2.4321    1.8466   50.4762 H       1  ZINC000892389374    0.1800
     40 H40         0.5215    3.6822   53.6389 H       1  ZINC000892389374    0.1300
     41 H41        -0.2658    5.2722   53.4968 H       1  ZINC000892389374    0.1400
@<TRIPOS>BOND
     1     1     2    1
     2     1    26    1
     3     1    27    1
     4     1    28    1
     5     2    13   ar
     6     2     3   ar
     7     3     4   ar
     8     3    29    1
     9     4     5   ar
    10     4    30    1
    11     5     6    1
    12     5    12   ar
    13     6    10   am
    14     6     7    1
    15     7     8    1
    16     7    31    1
    17     7    32    1
    18     8     9    1
    19     8    33    1
    20     8    34    1
    21     9    10    1
    22    10    11    2
    23    12    13   ar
    24    12    35    1
    25    13    14    1
    26    14    15    1
    27    14    36    1
    28    15    16    1
    29    15    37    1
    30    15    38    1
    31    16    25    1
    32    16    17    2
    33    17    18    1
    34    17    39    1
    35    18    19    2
    36    19    20    1
    37    19    25    1
    38    20    21    1
    39    20    40    1
    40    20    41    1
    41    21    22    1
    42    21    23    1
    43    21    24    1
@<TRIPOS>SUBSTRUCTURE
     1 ZINC000892389374        1 TEMP              0 ****  ****    0 ROOT


##########                                Name:    ZINC001120957943
##########                DOCK_Rotatable_Bonds:                   4
##########                         Heavy_Atoms:                  27
##########                    Molecular_Weight:             396.802
##########                DOCK_Rotatable_Bonds:                   4
##########                       Formal_Charge:          -0.0199996
##########                     HBond_Acceptors:                  10
##########                        HBond_Donors:                   0
##########                         Heavy_Atoms:                  27
##########                          Grid_Score:          -27.898138
##########                     Grid_vdw_energy:          -26.209059
##########                      Grid_es_energy:           -1.689080
##########           Internal_energy_repulsive:           11.136708

@<TRIPOS>MOLECULE
ZINC001120957943
 43 46 1 0 0
SMALL
USER_CHARGES


@<TRIPOS>ATOM
      1 C1         -7.7783    3.3309   61.9270 C.3     1  ZINC001120957943    0.0900
      2 N2         -7.3599    2.1584   61.1546 N.pl3   1  ZINC001120957943   -0.6000
      3 C3         -7.5163    0.8155   61.7189 C.3     1  ZINC001120957943    0.2200
      4 C4         -8.0572    0.9199   63.1215 C.2     1  ZINC001120957943    0.1600
      5 N5         -9.2962    0.7242   63.4937 N.2     1  ZINC001120957943   -0.2500
      6 N6         -9.4010    0.8979   64.7667 N.2     1  ZINC001120957943   -0.2800
      7 C7         -8.2406    1.2106   65.2580 C.2     1  ZINC001120957943    0.1700
      8 C8         -7.8766    1.5081   66.6909 C.3     1  ZINC001120957943   -0.0300
      9 C9         -6.5080    2.2023   66.7016 C.3     1  ZINC001120957943   -0.1300
     10 C10        -5.5306    1.4082   65.8303 C.3     1  ZINC001120957943   -0.1500
     11 H11        -5.5560    0.3579   66.1211 H       1  ZINC001120957943    0.1300
     12 C12        -4.1152    1.9562   66.0230 C.3     1  ZINC001120957943    0.4600
     13 F13        -3.2284    1.2584   65.1961 F       1  ZINC001120957943   -0.1700
     14 F14        -4.0919    3.3150   65.6903 F       1  ZINC001120957943   -0.1800
     15 F15        -3.7312    1.7965   67.3587 F       1  ZINC001120957943   -0.1800
     16 C16        -5.9324    1.5398   64.3566 C.3     1  ZINC001120957943    0.1100
     17 N17        -7.3554    1.2268   64.2295 N.pl3   1  ZINC001120957943   -0.4700
     18 C18        -6.8157    2.3199   59.8889 C.ar    1  ZINC001120957943    0.3700
     19 C19        -7.1349    1.4049   58.8704 C.ar    1  ZINC001120957943    0.0500
     20 N20        -6.6304    1.5417   57.6679 N.ar    1  ZINC001120957943   -0.3900
     21 C21        -5.8033    2.5611   57.4040 C.ar    1  ZINC001120957943    0.0400
     22 C22        -5.2498    2.7302   56.1236 C.ar    1  ZINC001120957943   -0.0600
     23 C23        -4.4115    3.7765   55.8828 C.ar    1  ZINC001120957943   -0.0400
     24 Cl24       -3.7307    3.9807   54.2990 Cl      1  ZINC001120957943   -0.0600
     25 C25        -4.0930    4.6863   56.8906 C.ar    1  ZINC001120957943   -0.0800
     26 C26        -4.6107    4.5532   58.1421 C.ar    1  ZINC001120957943   -0.0800
     27 C27        -5.4790    3.4856   58.4277 C.ar    1  ZINC001120957943    0.1400
     28 N28        -6.0067    3.3342   59.6487 N.ar    1  ZINC001120957943   -0.4700
     29 H29        -6.9427    3.6854   62.5305 H       1  ZINC001120957943    0.0700
     30 H30        -8.0952    4.1205   61.2458 H       1  ZINC001120957943    0.0800
     31 H31        -8.6081    3.0590   62.5793 H       1  ZINC001120957943    0.0700
     32 H32        -8.2093    0.2415   61.1039 H       1  ZINC001120957943    0.1200
     33 H33        -6.5481    0.3150   61.7391 H       1  ZINC001120957943    0.1000
     34 H34        -8.6260    2.1651   67.1322 H       1  ZINC001120957943    0.1100
     35 H35        -7.8220    0.5784   67.2573 H       1  ZINC001120957943    0.1000
     36 H36        -6.6095    3.2130   66.3061 H       1  ZINC001120957943    0.0900
     37 H37        -6.1307    2.2472   67.7233 H       1  ZINC001120957943    0.1000
     38 H38        -5.7466    2.5587   64.0166 H       1  ZINC001120957943    0.1000
     39 H39        -5.3517    0.8400   63.7554 H       1  ZINC001120957943    0.1100
     40 H40        -7.8014    0.5815   59.0804 H       1  ZINC001120957943    0.1700
     41 H41        -5.4880    2.0333   55.3338 H       1  ZINC001120957943    0.1500
     42 H42        -3.4258    5.5078   56.6749 H       1  ZINC001120957943    0.1400
     43 H43        -4.3550    5.2651   58.9131 H       1  ZINC001120957943    0.1500
@<TRIPOS>BOND
     1     1     2    1
     2     1    29    1
     3     1    30    1
     4     1    31    1
     5     2     3    1
     6     2    18    1
     7     3     4    1
     8     3    32    1
     9     3    33    1
    10     4    17    1
    11     4     5    2
    12     5     6    1
    13     6     7    2
    14     7    17    1
    15     7     8    1
    16     8     9    1
    17     8    34    1
    18     8    35    1
    19     9    10    1
    20     9    36    1
    21     9    37    1
    22    10    11    1
    23    10    12    1
    24    10    16    1
    25    12    13    1
    26    12    14    1
    27    12    15    1
    28    16    17    1
    29    16    38    1
    30    16    39    1
    31    18    28   ar
    32    18    19   ar
    33    19    20   ar
    34    19    40    1
    35    20    21   ar
    36    21    27   ar
    37    21    22   ar
    38    22    23   ar
    39    22    41    1
    40    23    24    1
    41    23    25   ar
    42    25    26   ar
    43    25    42    1
    44    26    27   ar
    45    26    43    1
    46    27    28   ar
@<TRIPOS>SUBSTRUCTURE
     1 ZINC001120957943        1 TEMP              0 ****  ****    0 ROOT


##########                                Name:    ZINC001300804061
##########                DOCK_Rotatable_Bonds:                   5
##########                         Heavy_Atoms:                  27
##########                    Molecular_Weight:              390.55
##########                DOCK_Rotatable_Bonds:                   5
##########                       Formal_Charge:                0.01
##########                     HBond_Acceptors:                   7
##########                        HBond_Donors:                   0
##########                         Heavy_Atoms:                  27
##########                          Grid_Score:          -27.885031
##########                     Grid_vdw_energy:          -27.841728
##########                      Grid_es_energy:           -0.043303
##########           Internal_energy_repulsive:            7.584389

@<TRIPOS>MOLECULE
ZINC001300804061
 57 60 1 0 0
SMALL
USER_CHARGES


@<TRIPOS>ATOM
      1 C1        -15.0540    1.0469   56.0790 C.3     1  ZINC001300804061    0.0300
      2 O2        -14.6892   -0.3316   56.1727 O.3     1  ZINC001300804061   -0.3800
      3 C3        -13.3686   -0.5507   56.6726 C.3     1  ZINC001300804061    0.1000
      4 H4        -13.1212    0.2238   57.3986 H       1  ZINC001300804061    0.0700
      5 C5        -12.3695   -0.5033   55.5144 C.3     1  ZINC001300804061    0.0500
      6 N6        -11.0147   -0.7493   56.0245 N.3     1  ZINC001300804061   -0.4600
      7 C7        -10.0707   -0.5847   55.0252 C.2     1  ZINC001300804061    0.3600
      8 N8         -9.7316   -1.4742   54.1205 N.2     1  ZINC001300804061   -0.3000
      9 N9         -8.8256   -0.9946   53.3456 N.2     1  ZINC001300804061   -0.2500
     10 C10        -8.5298    0.2342   53.7091 C.2     1  ZINC001300804061    0.2600
     11 C11        -7.5425    1.1211   53.0740 C.2     1  ZINC001300804061    0.0400
     12 C12        -7.7712    2.3926   52.6406 C.2     1  ZINC001300804061   -0.1300
     13 C13        -6.5569    2.8622   52.1037 C.2     1  ZINC001300804061   -0.2100
     14 C14        -5.6561    1.8679   52.2332 C.2     1  ZINC001300804061    0.0100
     15 C15        -4.2160    1.9250   51.7929 C.3     1  ZINC001300804061   -0.0800
     16 O16        -6.2528    0.8199   52.8248 O.3     1  ZINC001300804061   -0.1700
     17 N17        -9.3237    0.5352   54.7937 N.pl3   1  ZINC001300804061   -0.4600
     18 C18        -9.3543    1.7912   55.5471 C.3     1  ZINC001300804061    0.1200
     19 C19        -8.1412    1.8579   56.4770 C.3     1  ZINC001300804061   -0.1000
     20 H20        -7.3285    1.2668   56.0546 H       1  ZINC001300804061    0.0900
     21 C21        -8.5193    1.2953   57.8440 C.3     1  ZINC001300804061   -0.1200
     22 C22        -7.2778    1.0983   58.7090 C.3     1  ZINC001300804061   -0.1200
     23 C23        -6.7155    2.4575   59.1332 C.3     1  ZINC001300804061   -0.0800
     24 S24        -6.1920    3.3654   57.6483 S.3     1  ZINC001300804061   -0.2600
     25 C25        -7.6899    3.3138   56.6200 C.3     1  ZINC001300804061   -0.0700
     26 C26       -10.9102   -2.0817   56.6328 C.3     1  ZINC001300804061    0.0600
     27 C27       -11.8658   -2.1763   57.8245 C.3     1  ZINC001300804061   -0.1100
     28 C28       -13.2982   -1.9240   57.3461 C.3     1  ZINC001300804061   -0.0900
     29 H29       -13.5844   -2.6948   56.6305 H       1  ZINC001300804061    0.0800
     30 C30       -14.2506   -1.9588   58.5430 C.3     1  ZINC001300804061   -0.1400
     31 H31       -15.0043    1.5039   57.0674 H       1  ZINC001300804061    0.0400
     32 H32       -14.3665    1.5598   55.4065 H       1  ZINC001300804061    0.0400
     33 H33       -16.0696    1.1284   55.6917 H       1  ZINC001300804061    0.0900
     34 H34       -12.6261   -1.2685   54.7817 H       1  ZINC001300804061    0.0700
     35 H35       -12.4071    0.4784   55.0422 H       1  ZINC001300804061    0.0800
     36 H36        -8.7033    2.9351   52.6975 H       1  ZINC001300804061    0.1600
     37 H37        -6.3807    3.8355   51.6701 H       1  ZINC001300804061    0.1600
     38 H38        -3.6009    2.3017   52.6102 H       1  ZINC001300804061    0.0900
     39 H39        -3.8806    0.9253   51.5167 H       1  ZINC001300804061    0.0800
     40 H40        -4.1248    2.5892   50.9335 H       1  ZINC001300804061    0.0900
     41 H41        -9.3270    2.6316   54.8535 H       1  ZINC001300804061    0.1100
     42 H42       -10.2687    1.8378   56.1386 H       1  ZINC001300804061    0.1000
     43 H43        -9.1976    1.9880   58.3421 H       1  ZINC001300804061    0.0700
     44 H44        -9.0202    0.3363   57.7114 H       1  ZINC001300804061    0.0800
     45 H45        -7.5425    0.5232   59.5963 H       1  ZINC001300804061    0.0800
     46 H46        -6.5228    0.5558   58.1401 H       1  ZINC001300804061    0.0800
     47 H47        -7.4861    3.0247   59.6554 H       1  ZINC001300804061    0.0800
     48 H48        -5.8593    2.3093   59.7914 H       1  ZINC001300804061    0.1100
     49 H49        -7.4706    3.7246   55.6345 H       1  ZINC001300804061    0.1000
     50 H50        -8.4786    3.8979   57.0941 H       1  ZINC001300804061    0.0900
     51 H51       -11.1737   -2.8395   55.8950 H       1  ZINC001300804061    0.0600
     52 H52        -9.8878   -2.2464   56.9732 H       1  ZINC001300804061    0.0800
     53 H53       -11.7993   -3.1705   58.2662 H       1  ZINC001300804061    0.0800
     54 H54       -11.5942   -1.4279   58.5690 H       1  ZINC001300804061    0.0800
     55 H55       -13.9652   -1.1862   59.2570 H       1  ZINC001300804061    0.0500
     56 H56       -15.2700   -1.7791   58.2016 H       1  ZINC001300804061    0.0600
     57 H57       -14.1952   -2.9357   59.0232 H       1  ZINC001300804061    0.0600
@<TRIPOS>BOND
     1     1     2    1
     2     1    31    1
     3     1    32    1
     4     1    33    1
     5     2     3    1
     6     3     4    1
     7     3    28    1
     8     3     5    1
     9     5     6    1
    10     5    34    1
    11     5    35    1
    12     6     7    1
    13     6    26    1
    14     7    17    1
    15     7     8    2
    16     8     9    1
    17     9    10    2
    18    10    11    1
    19    10    17    1
    20    11    16    1
    21    11    12    2
    22    12    13    1
    23    12    36    1
    24    13    14    2
    25    13    37    1
    26    14    15    1
    27    14    16    1
    28    15    38    1
    29    15    39    1
    30    15    40    1
    31    17    18    1
    32    18    19    1
    33    18    41    1
    34    18    42    1
    35    19    20    1
    36    19    25    1
    37    19    21    1
    38    21    22    1
    39    21    43    1
    40    21    44    1
    41    22    23    1
    42    22    45    1
    43    22    46    1
    44    23    24    1
    45    23    47    1
    46    23    48    1
    47    24    25    1
    48    25    49    1
    49    25    50    1
    50    26    27    1
    51    26    51    1
    52    26    52    1
    53    27    28    1
    54    27    53    1
    55    27    54    1
    56    28    29    1
    57    28    30    1
    58    30    55    1
    59    30    56    1
    60    30    57    1
@<TRIPOS>SUBSTRUCTURE
     1 ZINC001300804061        1 TEMP              0 ****  ****    0 ROOT


##########                                Name:    ZINC000020646552
##########                DOCK_Rotatable_Bonds:                   5
##########                         Heavy_Atoms:                  29
##########                    Molecular_Weight:             412.556
##########                DOCK_Rotatable_Bonds:                   5
##########                       Formal_Charge:          -0.0200012
##########                     HBond_Acceptors:                   7
##########                        HBond_Donors:                   0
##########                         Heavy_Atoms:                  29
##########                          Grid_Score:          -27.882679
##########                     Grid_vdw_energy:          -27.119537
##########                      Grid_es_energy:           -0.763141
##########           Internal_energy_repulsive:           10.411242

@<TRIPOS>MOLECULE
ZINC000020646552
 57 60 1 0 0
SMALL
USER_CHARGES


@<TRIPOS>ATOM
      1 C1        -16.7938   -0.9908   57.3892 C.3     1  ZINC000020646552    0.0200
      2 N2        -15.8300   -1.0857   58.4939 N.3     1  ZINC000020646552   -0.5400
      3 C3        -15.0478    0.1515   58.6177 C.3     1  ZINC000020646552    0.0400
      4 C4        -14.1877    0.0834   59.8841 C.3     1  ZINC000020646552    0.1200
      5 N5        -13.3929   -1.1535   59.8433 N.am    1  ZINC000020646552   -0.6100
      6 C6        -12.0594   -1.1257   60.0373 C.2     1  ZINC000020646552    0.5300
      7 O7        -11.4194   -2.1551   59.9985 O.2     1  ZINC000020646552   -0.5200
      8 C8        -11.3637    0.1847   60.3020 C.3     1  ZINC000020646552   -0.1500
      9 S9         -9.5717   -0.0571   60.2234 S.3     1  ZINC000020646552    0.0500
     10 C10        -9.2716    0.4201   58.5540 C.ar    1  ZINC000020646552    0.1500
     11 N11       -10.1287    0.0904   57.5938 N.ar    1  ZINC000020646552   -0.5200
     12 C12        -9.9032    0.4491   56.3376 C.ar    1  ZINC000020646552    0.3800
     13 C13       -10.8814    0.0675   55.2899 C.ar    1  ZINC000020646552   -0.0500
     14 C14       -10.4424   -0.5117   54.1007 C.ar    1  ZINC000020646552   -0.0700
     15 C15       -11.3571   -0.8652   53.1296 C.ar    1  ZINC000020646552   -0.1300
     16 C16       -12.7073   -0.6457   53.3348 C.ar    1  ZINC000020646552   -0.1000
     17 C17       -13.1487   -0.0707   54.5130 C.ar    1  ZINC000020646552   -0.1300
     18 C18       -12.2435    0.2815   55.4935 C.ar    1  ZINC000020646552   -0.0700
     19 N19        -8.8260    1.1403   55.9946 N.ar    1  ZINC000020646552   -0.5200
     20 C20        -7.9287    1.5017   56.9031 C.ar    1  ZINC000020646552    0.2100
     21 C21        -8.1295    1.1572   58.2201 C.ar    1  ZINC000020646552   -0.2100
     22 C22        -7.1565    1.5472   59.2983 C.3     1  ZINC000020646552    0.1100
     23 O23        -5.9140    1.9474   58.7191 O.3     1  ZINC000020646552   -0.3600
     24 C24        -6.0619    2.9347   57.6924 C.3     1  ZINC000020646552    0.1100
     25 C25        -6.9523    4.0717   58.1976 C.3     1  ZINC000020646552   -0.1800
     26 C26        -4.6877    3.4889   57.3110 C.3     1  ZINC000020646552   -0.1400
     27 C27        -6.7142    2.2817   56.4737 C.3     1  ZINC000020646552   -0.0900
     28 C28       -14.0920   -2.4216   59.5855 C.3     1  ZINC000020646552    0.1100
     29 C29       -14.9558   -2.2549   58.3308 C.3     1  ZINC000020646552    0.0400
     30 H30       -17.4114   -1.8887   57.3677 H       1  ZINC000020646552    0.0700
     31 H31       -17.4285   -0.1167   57.5349 H       1  ZINC000020646552    0.0700
     32 H32       -16.2566   -0.8967   56.4455 H       1  ZINC000020646552    0.0300
     33 H33       -14.4031    0.2630   57.7458 H       1  ZINC000020646552    0.0400
     34 H34       -15.7236    1.0043   58.6823 H       1  ZINC000020646552    0.0900
     35 H35       -13.5217    0.9455   59.9212 H       1  ZINC000020646552    0.1000
     36 H36       -14.8311    0.0763   60.7638 H       1  ZINC000020646552    0.0800
     37 H37       -11.6653    0.9145   59.5508 H       1  ZINC000020646552    0.1300
     38 H38       -11.6382    0.5481   61.2924 H       1  ZINC000020646552    0.1200
     39 H39        -9.3884   -0.6832   53.9393 H       1  ZINC000020646552    0.1400
     40 H40       -11.0180   -1.3137   52.2075 H       1  ZINC000020646552    0.1300
     41 H41       -13.4195   -0.9239   52.5722 H       1  ZINC000020646552    0.1300
     42 H42       -14.2040    0.0987   54.6678 H       1  ZINC000020646552    0.1300
     43 H43       -12.5892    0.7303   56.4130 H       1  ZINC000020646552    0.1300
     44 H44        -7.5694    2.3747   59.8753 H       1  ZINC000020646552    0.0800
     45 H45        -6.9897    0.6967   59.9593 H       1  ZINC000020646552    0.1100
     46 H46        -6.4955    4.5282   59.0756 H       1  ZINC000020646552    0.0700
     47 H47        -7.0632    4.8217   57.4144 H       1  ZINC000020646552    0.0700
     48 H48        -7.9325    3.6754   58.4626 H       1  ZINC000020646552    0.0600
     49 H49        -4.0576    2.6781   56.9455 H       1  ZINC000020646552    0.0700
     50 H50        -4.8031    4.2399   56.5295 H       1  ZINC000020646552    0.0800
     51 H51        -4.2236    3.9436   58.1863 H       1  ZINC000020646552    0.0700
     52 H52        -6.0032    1.6037   56.0015 H       1  ZINC000020646552    0.1000
     53 H53        -7.0063    3.0535   55.7616 H       1  ZINC000020646552    0.1000
     54 H54       -13.3627   -3.2156   59.4251 H       1  ZINC000020646552    0.0900
     55 H55       -14.7263   -2.6696   60.4365 H       1  ZINC000020646552    0.0800
     56 H56       -15.5650   -3.1474   58.1874 H       1  ZINC000020646552    0.0900
     57 H57       -14.3125   -2.1099   57.4629 H       1  ZINC000020646552    0.0400
@<TRIPOS>BOND
     1     1     2    1
     2     1    30    1
     3     1    31    1
     4     1    32    1
     5     2    29    1
     6     2     3    1
     7     3     4    1
     8     3    33    1
     9     3    34    1
    10     4     5    1
    11     4    35    1
    12     4    36    1
    13     5     6   am
    14     5    28    1
    15     6     7    2
    16     6     8    1
    17     8     9    1
    18     8    37    1
    19     8    38    1
    20     9    10    1
    21    10    21   ar
    22    10    11   ar
    23    11    12   ar
    24    12    13    1
    25    12    19   ar
    26    13    18   ar
    27    13    14   ar
    28    14    15   ar
    29    14    39    1
    30    15    16   ar
    31    15    40    1
    32    16    17   ar
    33    16    41    1
    34    17    18   ar
    35    17    42    1
    36    18    43    1
    37    19    20   ar
    38    20    27    1
    39    20    21   ar
    40    21    22    1
    41    22    23    1
    42    22    44    1
    43    22    45    1
    44    23    24    1
    45    24    25    1
    46    24    26    1
    47    24    27    1
    48    25    46    1
    49    25    47    1
    50    25    48    1
    51    26    49    1
    52    26    50    1
    53    26    51    1
    54    27    52    1
    55    27    53    1
    56    28    29    1
    57    28    54    1
    58    28    55    1
    59    29    56    1
    60    29    57    1
@<TRIPOS>SUBSTRUCTURE
     1 ZINC000020646552        1 TEMP              0 ****  ****    0 ROOT


##########                                Name:    ZINC000847397179
##########                DOCK_Rotatable_Bonds:                   9
##########                         Heavy_Atoms:                  25
##########                    Molecular_Weight:             350.461
##########                DOCK_Rotatable_Bonds:                   9
##########                       Formal_Charge:          0.00999979
##########                     HBond_Acceptors:                   7
##########                        HBond_Donors:                   2
##########                         Heavy_Atoms:                  25
##########                          Grid_Score:          -27.881460
##########                     Grid_vdw_energy:          -25.837347
##########                      Grid_es_energy:           -2.044113
##########           Internal_energy_repulsive:           85.452843

@<TRIPOS>MOLECULE
ZINC000847397179
 55 56 1 0 0
SMALL
USER_CHARGES


@<TRIPOS>ATOM
      1 C1        -10.4597   -1.5901   56.7689 C.3     1  ZINC000847397179   -0.1500
      2 C2        -11.7048   -2.0630   57.5218 C.3     1  ZINC000847397179   -0.1000
      3 H3        -11.7502   -3.1518   57.5012 H       1  ZINC000847397179    0.0900
      4 C4        -12.9546   -1.4878   56.8523 C.3     1  ZINC000847397179   -0.0200
      5 C5        -14.1184   -2.4183   57.0775 C.2     1  ZINC000847397179    0.0100
      6 C6        -15.1939   -2.5483   56.2775 C.2     1  ZINC000847397179   -0.0500
      7 N7        -16.0005   -3.4951   56.8490 N.pl3   1  ZINC000847397179   -0.5700
      8 C8        -15.3894   -3.9110   57.9791 C.2     1  ZINC000847397179    0.1800
      9 N9        -14.2620   -3.2662   58.1067 N.2     1  ZINC000847397179   -0.4900
     10 C10       -11.6376   -1.5897   58.9509 C.2     1  ZINC000847397179    0.5200
     11 O11       -11.8344   -2.3703   59.8581 O.2     1  ZINC000847397179   -0.5300
     12 N12       -11.3586   -0.2991   59.2210 N.am    1  ZINC000847397179   -0.7400
     13 C13       -11.2949    0.1613   60.6103 C.3     1  ZINC000847397179    0.1200
     14 C14        -9.8705   -0.0137   61.1408 C.3     1  ZINC000847397179    0.1500
     15 H15        -9.6170   -1.0735   61.1642 H       1  ZINC000847397179    0.0800
     16 C16        -8.8883    0.7294   60.2299 C.3     1  ZINC000847397179   -0.1300
     17 C17        -7.4862    0.6680   60.8402 C.3     1  ZINC000847397179   -0.1200
     18 C18        -7.4925    1.3562   62.2071 C.3     1  ZINC000847397179   -0.1400
     19 C19        -8.4588    0.6202   63.1405 C.3     1  ZINC000847397179    0.1100
     20 N20        -9.7778    0.5450   62.4966 N.am    1  ZINC000847397179   -0.5900
     21 C21       -10.8799    0.9846   63.1354 C.2     1  ZINC000847397179    0.6500
     22 O22       -11.9647    0.9170   62.5922 O.2     1  ZINC000847397179   -0.5500
     23 O23       -10.7791    1.4989   64.3756 O.3     1  ZINC000847397179   -0.3600
     24 C24       -11.0282    2.9219   64.5216 C.3     1  ZINC000847397179    0.1400
     25 C25       -10.3569    3.4289   65.7994 C.3     1  ZINC000847397179   -0.1800
     26 C26       -10.4548    3.6665   63.3142 C.3     1  ZINC000847397179   -0.1400
     27 C27       -12.5358    3.1697   64.6047 C.3     1  ZINC000847397179   -0.1800
     28 H28       -10.4143   -0.5013   56.7893 H       1  ZINC000847397179    0.0500
     29 H29        -9.5693   -1.9999   57.2457 H       1  ZINC000847397179    0.0500
     30 H30       -10.5084   -1.9324   55.7351 H       1  ZINC000847397179    0.1000
     31 H31       -13.1809   -0.5122   57.2825 H       1  ZINC000847397179    0.0800
     32 H32       -12.7769   -1.3805   55.7823 H       1  ZINC000847397179    0.0800
     33 H33       -15.3838   -2.0089   55.3613 H       1  ZINC000847397179    0.1800
     34 H34       -16.8521   -3.8087   56.5063 H       1  ZINC000847397179    0.4200
     35 H35       -15.7689   -4.6566   58.6621 H       1  ZINC000847397179    0.2100
     36 H36       -11.2000    0.3248   58.4955 H       1  ZINC000847397179    0.3900
     37 H37       -11.5734    1.2140   60.6573 H       1  ZINC000847397179    0.0800
     38 H38       -11.9838   -0.4243   61.2191 H       1  ZINC000847397179    0.1000
     39 H39        -8.8779    0.2597   59.2462 H       1  ZINC000847397179    0.0800
     40 H40        -9.1978    1.7701   60.1333 H       1  ZINC000847397179    0.0700
     41 H41        -7.1874   -0.3735   60.9594 H       1  ZINC000847397179    0.0700
     42 H42        -6.7810    1.1749   60.1816 H       1  ZINC000847397179    0.0700
     43 H43        -6.4886    1.3327   62.6309 H       1  ZINC000847397179    0.0800
     44 H44        -7.8152    2.3909   62.0920 H       1  ZINC000847397179    0.0700
     45 H45        -8.0887   -0.3875   63.3290 H       1  ZINC000847397179    0.0700
     46 H46        -8.5423    1.1631   64.0820 H       1  ZINC000847397179    0.0900
     47 H47        -9.2829    3.2523   65.7403 H       1  ZINC000847397179    0.0600
     48 H48       -10.5440    4.4971   65.9090 H       1  ZINC000847397179    0.0700
     49 H49       -10.7654    2.8983   66.6596 H       1  ZINC000847397179    0.0900
     50 H50       -10.9332    3.3054   62.4038 H       1  ZINC000847397179    0.0700
     51 H51       -10.6419    4.7347   63.4239 H       1  ZINC000847397179    0.0800
     52 H52        -9.3809    3.4900   63.2550 H       1  ZINC000847397179    0.0700
     53 H53       -12.9443    2.6392   65.4649 H       1  ZINC000847397179    0.0900
     54 H54       -12.7229    4.2379   64.7143 H       1  ZINC000847397179    0.0700
     55 H55       -13.0141    2.8086   63.6943 H       1  ZINC000847397179    0.0600
@<TRIPOS>BOND
     1     1     2    1
     2     1    28    1
     3     1    29    1
     4     1    30    1
     5     2     3    1
     6     2     4    1
     7     2    10    1
     8     4     5    1
     9     4    31    1
    10     4    32    1
    11     5     9    1
    12     5     6    2
    13     6     7    1
    14     6    33    1
    15     7     8    1
    16     7    34    1
    17     8     9    2
    18     8    35    1
    19    10    11    2
    20    10    12   am
    21    12    13    1
    22    12    36    1
    23    13    14    1
    24    13    37    1
    25    13    38    1
    26    14    15    1
    27    14    20    1
    28    14    16    1
    29    16    17    1
    30    16    39    1
    31    16    40    1
    32    17    18    1
    33    17    41    1
    34    17    42    1
    35    18    19    1
    36    18    43    1
    37    18    44    1
    38    19    20    1
    39    19    45    1
    40    19    46    1
    41    20    21   am
    42    21    22    2
    43    21    23    1
    44    23    24    1
    45    24    25    1
    46    24    26    1
    47    24    27    1
    48    25    47    1
    49    25    48    1
    50    25    49    1
    51    26    50    1
    52    26    51    1
    53    26    52    1
    54    27    53    1
    55    27    54    1
    56    27    55    1
@<TRIPOS>SUBSTRUCTURE
     1 ZINC000847397179        1 TEMP              0 ****  ****    0 ROOT


##########                                Name:    ZINC001124460178
##########                DOCK_Rotatable_Bonds:                  12
##########                         Heavy_Atoms:                  22
##########                    Molecular_Weight:             328.479
##########                DOCK_Rotatable_Bonds:                  12
##########                       Formal_Charge:          -0.0100003
##########                     HBond_Acceptors:                   7
##########                        HBond_Donors:                   2
##########                         Heavy_Atoms:                  22
##########                          Grid_Score:          -27.849348
##########                     Grid_vdw_energy:          -28.412148
##########                      Grid_es_energy:            0.562800
##########           Internal_energy_repulsive:           18.863567

@<TRIPOS>MOLECULE
ZINC001124460178
 50 50 1 0 0
SMALL
USER_CHARGES


@<TRIPOS>ATOM
      1 C1         -5.1979    1.6429   51.6385 C.3     1  ZINC001124460178   -0.0700
      2 C2         -6.5104    1.3997   52.3380 C.2     1  ZINC001124460178    0.3100
      3 N3         -7.2353    2.3906   52.7688 N.2     1  ZINC001124460178   -0.5000
      4 S4         -8.6065    1.6838   53.4819 S.3     1  ZINC001124460178    0.1800
      5 C5         -8.1143    0.0658   53.1520 C.2     1  ZINC001124460178    0.3400
      6 N6         -8.7870   -1.1002   53.4694 N.pl3   1  ZINC001124460178   -0.6600
      7 C7        -10.2484   -1.0981   53.5721 C.3     1  ZINC001124460178    0.0900
      8 C8        -10.6569   -0.8835   55.0308 C.3     1  ZINC001124460178    0.0800
      9 H9        -10.1292   -0.0184   55.4325 H       1  ZINC001124460178    0.1200
     10 O10       -12.0661   -0.6575   55.1025 O.3     1  ZINC001124460178   -0.5500
     11 C11       -10.2973   -2.1253   55.8490 C.3     1  ZINC001124460178    0.0900
     12 N12       -10.7450   -1.9452   57.2323 N.am    1  ZINC001124460178   -0.6100
     13 C13       -11.8884   -2.7092   57.7376 C.3     1  ZINC001124460178    0.0800
     14 C14       -10.1051   -1.0765   58.0400 C.2     1  ZINC001124460178    0.5100
     15 O15        -9.1596   -0.4429   57.6213 O.2     1  ZINC001124460178   -0.5400
     16 C16       -10.5645   -0.8926   59.4635 C.3     1  ZINC001124460178   -0.1400
     17 C17        -9.6118    0.0608   60.1877 C.3     1  ZINC001124460178   -0.1100
     18 C18       -10.2138    0.4551   61.5379 C.3     1  ZINC001124460178   -0.1200
     19 C19        -9.4186    1.6204   62.1299 C.3     1  ZINC001124460178   -0.1200
     20 C20        -8.0238    1.1351   62.5297 C.3     1  ZINC001124460178   -0.1000
     21 C21        -7.1270    2.3410   62.8167 C.3     1  ZINC001124460178   -0.1500
     22 C22        -8.1265    0.2658   63.7845 C.3     1  ZINC001124460178   -0.1500
     23 N23        -6.9614    0.1814   52.5273 N.2     1  ZINC001124460178   -0.5800
     24 H24        -5.3703    1.7422   50.5668 H       1  ZINC001124460178    0.0900
     25 H25        -4.7469    2.5589   52.0202 H       1  ZINC001124460178    0.0900
     26 H26        -4.5271    0.8037   51.8223 H       1  ZINC001124460178    0.0900
     27 H27        -8.2911   -1.9194   53.6242 H       1  ZINC001124460178    0.4200
     28 H28       -10.6546   -0.2937   52.9589 H       1  ZINC001124460178    0.0800
     29 H29       -10.6386   -2.0540   53.2223 H       1  ZINC001124460178    0.0900
     30 H30       -12.4011   -0.5453   56.0027 H       1  ZINC001124460178    0.3800
     31 H31       -10.7881   -2.9984   55.4191 H       1  ZINC001124460178    0.0900
     32 H32        -9.2172   -2.2709   55.8328 H       1  ZINC001124460178    0.1000
     33 H33       -11.5372   -3.6480   58.1659 H       1  ZINC001124460178    0.0600
     34 H34       -12.4023   -2.1296   58.5045 H       1  ZINC001124460178    0.0800
     35 H35       -12.5761   -2.9184   56.9183 H       1  ZINC001124460178    0.0800
     36 H36       -11.5711   -0.4742   59.4693 H       1  ZINC001124460178    0.0900
     37 H37       -10.5690   -1.8570   59.9714 H       1  ZINC001124460178    0.0900
     38 H38        -8.6541   -0.4346   60.3476 H       1  ZINC001124460178    0.0700
     39 H39        -9.4619    0.9544   59.5818 H       1  ZINC001124460178    0.0700
     40 H40       -11.2518    0.7571   61.3986 H       1  ZINC001124460178    0.0600
     41 H41       -10.1711   -0.3962   62.2172 H       1  ZINC001124460178    0.0600
     42 H42        -9.3285    2.4132   61.3874 H       1  ZINC001124460178    0.0600
     43 H43        -9.9359    2.0036   63.0096 H       1  ZINC001124460178    0.0600
     44 H44        -7.5958    0.5495   61.7160 H       1  ZINC001124460178    0.0700
     45 H45        -7.5550    2.9266   63.6304 H       1  ZINC001124460178    0.0500
     46 H46        -6.1332    1.9952   63.1015 H       1  ZINC001124460178    0.0500
     47 H47        -7.0538    2.9603   61.9228 H       1  ZINC001124460178    0.0500
     48 H48        -8.7654   -0.5933   63.5800 H       1  ZINC001124460178    0.0600
     49 H49        -7.1328   -0.0801   64.0693 H       1  ZINC001124460178    0.0500
     50 H50        -8.5544    0.8513   64.5981 H       1  ZINC001124460178    0.0500
@<TRIPOS>BOND
     1     1     2    1
     2     1    24    1
     3     1    25    1
     4     1    26    1
     5     2    23    1
     6     2     3    2
     7     3     4    1
     8     4     5    1
     9     5     6    1
    10     5    23    2
    11     6     7    1
    12     6    27    1
    13     7     8    1
    14     7    28    1
    15     7    29    1
    16     8     9    1
    17     8    10    1
    18     8    11    1
    19    10    30    1
    20    11    12    1
    21    11    31    1
    22    11    32    1
    23    12    13    1
    24    12    14   am
    25    13    33    1
    26    13    34    1
    27    13    35    1
    28    14    15    2
    29    14    16    1
    30    16    17    1
    31    16    36    1
    32    16    37    1
    33    17    18    1
    34    17    38    1
    35    17    39    1
    36    18    19    1
    37    18    40    1
    38    18    41    1
    39    19    20    1
    40    19    42    1
    41    19    43    1
    42    20    21    1
    43    20    22    1
    44    20    44    1
    45    21    45    1
    46    21    46    1
    47    21    47    1
    48    22    48    1
    49    22    49    1
    50    22    50    1
@<TRIPOS>SUBSTRUCTURE
     1 ZINC001124460178        1 TEMP              0 ****  ****    0 ROOT


##########                                Name:    ZINC000274267583
##########                DOCK_Rotatable_Bonds:                   5
##########                         Heavy_Atoms:                  24
##########                    Molecular_Weight:             349.407
##########                DOCK_Rotatable_Bonds:                   5
##########                       Formal_Charge:           0.0300001
##########                     HBond_Acceptors:                   7
##########                        HBond_Donors:                   1
##########                         Heavy_Atoms:                  24
##########                          Grid_Score:          -27.817867
##########                     Grid_vdw_energy:          -27.292904
##########                      Grid_es_energy:           -0.524963
##########           Internal_energy_repulsive:           15.451044

@<TRIPOS>MOLECULE
ZINC000274267583
 43 45 1 0 0
SMALL
USER_CHARGES


@<TRIPOS>ATOM
      1 C1         -7.2428   -0.0119   59.6970 C.3     1  ZINC000274267583    0.0200
      2 O2         -6.3328    1.0429   59.3787 O.3     1  ZINC000274267583   -0.3100
      3 C3         -6.6310    1.8093   58.2966 C.ar    1  ZINC000274267583    0.1900
      4 C4         -5.8462    2.9109   57.9879 C.ar    1  ZINC000274267583   -0.2300
      5 C5         -6.1511    3.6880   56.8872 C.ar    1  ZINC000274267583    0.0300
      6 C6         -7.2376    3.3690   56.0938 C.ar    1  ZINC000274267583   -0.7200
      7 S7         -7.6241    4.3625   54.6910 S.o2    1  ZINC000274267583    2.7000
      8 O8         -8.6683    3.6912   53.9992 O.2     1  ZINC000274267583   -0.9500
      9 O9         -7.7381    5.6976   55.1639 O.2     1  ZINC000274267583   -0.9500
     10 N10        -6.3052    4.3319   53.6901 N.am    1  ZINC000274267583   -1.1100
     11 C11        -5.8283    3.0582   53.1454 C.3     1  ZINC000274267583    0.2100
     12 H12        -6.0836    2.2517   53.8326 H       1  ZINC000274267583    0.1000
     13 C13        -6.4936    2.8029   51.7907 C.3     1  ZINC000274267583   -0.1800
     14 C14        -5.7703    1.6330   51.1114 C.3     1  ZINC000274267583    0.0600
     15 O15        -4.4267    2.0322   50.8375 O.3     1  ZINC000274267583   -0.3100
     16 C16        -3.7147    2.6003   51.8468 C.ar    1  ZINC000274267583    0.1100
     17 C17        -2.3301    2.6590   51.7291 C.ar    1  ZINC000274267583   -0.1100
     18 C18        -1.5703    3.2317   52.7286 C.ar    1  ZINC000274267583   -0.1600
     19 C19        -2.1892    3.7516   53.8554 C.ar    1  ZINC000274267583    0.0900
     20 O20        -1.4440    4.3192   54.8411 O.3     1  ZINC000274267583   -0.3200
     21 C21        -0.0286    4.1348   54.7723 C.3     1  ZINC000274267583    0.0300
     22 C22        -3.5684    3.6918   53.9749 C.ar    1  ZINC000274267583   -0.1000
     23 C23        -4.3316    3.1154   52.9727 C.ar    1  ZINC000274267583   -0.1400
     24 C24        -8.0210    2.2713   56.3991 C.ar    1  ZINC000274267583    0.0200
     25 C25        -7.7172    1.4880   57.4958 C.ar    1  ZINC000274267583   -0.1700
     26 H26        -8.2289    0.4070   59.8975 H       1  ZINC000274267583    0.0600
     27 H27        -7.3057   -0.7034   58.8568 H       1  ZINC000274267583    0.0600
     28 H28        -6.8877   -0.5440   60.5796 H       1  ZINC000274267583    0.1100
     29 H29        -4.9979    3.1609   58.6077 H       1  ZINC000274267583    0.1400
     30 H30        -5.5405    4.5456   56.6465 H       1  ZINC000274267583    0.1400
     31 H31        -5.8481    5.1573   53.4646 H       1  ZINC000274267583    0.4200
     32 H32        -7.5433    2.5496   51.9389 H       1  ZINC000274267583    0.1000
     33 H33        -6.4146    3.6945   51.1688 H       1  ZINC000274267583    0.0900
     34 H34        -5.7683    0.7678   51.7745 H       1  ZINC000274267583    0.0700
     35 H35        -6.2756    1.3805   50.1792 H       1  ZINC000274267583    0.1200
     36 H36        -1.8475    2.2542   50.8518 H       1  ZINC000274267583    0.1400
     37 H37        -0.4954    3.2745   52.6335 H       1  ZINC000274267583    0.1400
     38 H38         0.2013    3.0699   54.8078 H       1  ZINC000274267583    0.0600
     39 H39         0.3479    4.5569   53.8405 H       1  ZINC000274267583    0.0600
     40 H40         0.4447    4.6370   55.6161 H       1  ZINC000274267583    0.1000
     41 H41        -4.0503    4.0964   54.8526 H       1  ZINC000274267583    0.1300
     42 H42        -8.8690    2.0239   55.7777 H       1  ZINC000274267583    0.1500
     43 H43        -8.3294    0.6307   57.7338 H       1  ZINC000274267583    0.1400
@<TRIPOS>BOND
     1     1     2    1
     2     1    26    1
     3     1    27    1
     4     1    28    1
     5     2     3    1
     6     3    25   ar
     7     3     4   ar
     8     4     5   ar
     9     4    29    1
    10     5     6   ar
    11     5    30    1
    12     6     7    1
    13     6    24   ar
    14     7     8    2
    15     7     9    2
    16     7    10   am
    17    10    11    1
    18    10    31    1
    19    11    12    1
    20    11    23    1
    21    11    13    1
    22    13    14    1
    23    13    32    1
    24    13    33    1
    25    14    15    1
    26    14    34    1
    27    14    35    1
    28    15    16    1
    29    16    23   ar
    30    16    17   ar
    31    17    18   ar
    32    17    36    1
    33    18    19   ar
    34    18    37    1
    35    19    20    1
    36    19    22   ar
    37    20    21    1
    38    21    38    1
    39    21    39    1
    40    21    40    1
    41    22    23   ar
    42    22    41    1
    43    24    25   ar
    44    24    42    1
    45    25    43    1
@<TRIPOS>SUBSTRUCTURE
     1 ZINC000274267583        1 TEMP              0 ****  ****    0 ROOT


##########                                Name:    ZINC001023148918
##########                DOCK_Rotatable_Bonds:                   6
##########                         Heavy_Atoms:                  25
##########                    Molecular_Weight:             348.402
##########                DOCK_Rotatable_Bonds:                   6
##########                       Formal_Charge:           0.0199999
##########                     HBond_Acceptors:                   8
##########                        HBond_Donors:                   2
##########                         Heavy_Atoms:                  25
##########                          Grid_Score:          -27.808355
##########                     Grid_vdw_energy:          -27.939697
##########                      Grid_es_energy:            0.131341
##########           Internal_energy_repulsive:           13.484405

@<TRIPOS>MOLECULE
ZINC001023148918
 49 52 1 0 0
SMALL
USER_CHARGES


@<TRIPOS>ATOM
      1 C1         -5.4014    2.2541   51.4720 C.3     1  ZINC001023148918   -0.0700
      2 C2         -5.9946    2.1941   52.8562 C.2     1  ZINC001023148918    0.0200
      3 N3         -7.1519    1.6743   53.1765 N.2     1  ZINC001023148918   -0.2700
      4 N4         -7.3690    1.7799   54.4380 N.pl3   1  ZINC001023148918   -0.2500
      5 C5         -8.5680    1.3025   55.1313 C.3     1  ZINC001023148918    0.0800
      6 C6         -6.3112    2.4054   55.0346 C.2     1  ZINC001023148918   -0.0400
      7 C7         -6.1630    2.7199   56.4645 C.2     1  ZINC001023148918    0.6000
      8 O8         -5.4776    3.6628   56.8119 O.2     1  ZINC001023148918   -0.5300
      9 N9         -6.7868    1.9633   57.3892 N.am    1  ZINC001023148918   -0.7000
     10 C10        -6.6392    2.2765   58.8126 C.3     1  ZINC001023148918    0.1500
     11 H11        -5.6606    2.7115   59.0154 H       1  ZINC001023148918    0.1200
     12 C12        -6.8798    1.0196   59.6857 C.3     1  ZINC001023148918    0.1000
     13 N13        -7.3064    1.5457   60.9951 N.am    1  ZINC001023148918   -0.6200
     14 C14        -7.1902    0.9045   62.1749 C.2     1  ZINC001023148918    0.5400
     15 O15        -6.7002   -0.2042   62.2168 O.2     1  ZINC001023148918   -0.5200
     16 C16        -7.6690    1.5652   63.4418 C.3     1  ZINC001023148918   -0.1400
     17 H17        -7.4700    2.6365   63.4160 H       1  ZINC001023148918    0.1100
     18 C18        -7.0092    0.9139   64.6840 C.3     1  ZINC001023148918   -0.1400
     19 C19        -8.2315    0.3456   65.4657 C.3     1  ZINC001023148918    0.0600
     20 H20        -8.0058   -0.4600   66.1645 H       1  ZINC001023148918    0.1300
     21 C21        -8.9386    1.5885   66.0848 C.3     1  ZINC001023148918   -0.1500
     22 C22        -9.6000    2.2562   64.8521 C.3     1  ZINC001023148918   -0.1500
     23 C23        -9.1861    1.2908   63.6680 C.3     1  ZINC001023148918    0.0900
     24 H24        -9.8216    1.3371   62.7836 H       1  ZINC001023148918    0.1400
     25 O25        -9.1368   -0.0017   64.3670 O.3     1  ZINC001023148918   -0.3600
     26 C26        -7.8788    2.8859   60.8010 C.3     1  ZINC001023148918    0.0700
     27 C27        -7.7761    3.2151   59.2963 C.3     1  ZINC001023148918    0.0900
     28 H28        -8.7107    2.9824   58.7859 H       1  ZINC001023148918    0.0800
     29 O29        -7.4236    4.5862   59.1016 O.3     1  ZINC001023148918   -0.5500
     30 C30        -5.4039    2.6780   54.0257 C.2     1  ZINC001023148918   -0.1800
     31 H31        -4.8115    1.3559   51.2902 H       1  ZINC001023148918    0.0800
     32 H32        -6.2028    2.3178   50.7358 H       1  ZINC001023148918    0.0700
     33 H33        -4.7611    3.1323   51.3890 H       1  ZINC001023148918    0.0800
     34 H34        -8.4410    0.2527   55.3958 H       1  ZINC001023148918    0.0900
     35 H35        -8.7219    1.8893   56.0369 H       1  ZINC001023148918    0.1100
     36 H36        -9.4331    1.4103   54.4772 H       1  ZINC001023148918    0.0900
     37 H37        -7.3333    1.2115   57.1121 H       1  ZINC001023148918    0.4100
     38 H38        -7.6649    0.4007   59.2514 H       1  ZINC001023148918    0.0800
     39 H39        -5.9579    0.4472   59.7888 H       1  ZINC001023148918    0.0900
     40 H40        -6.3341    0.1116   64.3866 H       1  ZINC001023148918    0.0800
     41 H41        -6.4841    1.6614   65.2788 H       1  ZINC001023148918    0.0900
     42 H42        -9.6932    1.2823   66.8093 H       1  ZINC001023148918    0.0800
     43 H43        -8.2110    2.2584   66.5428 H       1  ZINC001023148918    0.0800
     44 H44       -10.6841    2.2829   64.9626 H       1  ZINC001023148918    0.0800
     45 H45        -9.2019    3.2588   64.6961 H       1  ZINC001023148918    0.0800
     46 H46        -8.9238    2.8912   61.1114 H       1  ZINC001023148918    0.0800
     47 H47        -7.3145    3.6174   61.3792 H       1  ZINC001023148918    0.0900
     48 H48        -7.1956    5.0533   59.9171 H       1  ZINC001023148918    0.3900
     49 H49        -4.4456    3.1668   54.1213 H       1  ZINC001023148918    0.1600
@<TRIPOS>BOND
     1     1     2    1
     2     1    31    1
     3     1    32    1
     4     1    33    1
     5     2    30    1
     6     2     3    2
     7     3     4    1
     8     4     5    1
     9     4     6    1
    10     5    34    1
    11     5    35    1
    12     5    36    1
    13     6     7    1
    14     6    30    2
    15     7     8    2
    16     7     9   am
    17     9    10    1
    18     9    37    1
    19    10    11    1
    20    10    27    1
    21    10    12    1
    22    12    13    1
    23    12    38    1
    24    12    39    1
    25    13    14   am
    26    13    26    1
    27    14    15    2
    28    14    16    1
    29    16    17    1
    30    16    23    1
    31    16    18    1
    32    18    19    1
    33    18    40    1
    34    18    41    1
    35    19    20    1
    36    19    25    1
    37    19    21    1
    38    21    22    1
    39    21    42    1
    40    21    43    1
    41    22    23    1
    42    22    44    1
    43    22    45    1
    44    23    24    1
    45    23    25    1
    46    26    27    1
    47    26    46    1
    48    26    47    1
    49    27    28    1
    50    27    29    1
    51    29    48    1
    52    30    49    1
@<TRIPOS>SUBSTRUCTURE
     1 ZINC001023148918        1 TEMP              0 ****  ****    0 ROOT


##########                                Name:    ZINC000015179664
##########                DOCK_Rotatable_Bonds:                   8
##########                         Heavy_Atoms:                  25
##########                    Molecular_Weight:             361.422
##########                DOCK_Rotatable_Bonds:                   8
##########                       Formal_Charge:        -2.23517e-07
##########                     HBond_Acceptors:                   8
##########                        HBond_Donors:                   1
##########                         Heavy_Atoms:                  25
##########                          Grid_Score:          -27.803797
##########                     Grid_vdw_energy:          -27.263090
##########                      Grid_es_energy:           -0.540707
##########           Internal_energy_repulsive:           23.853537

@<TRIPOS>MOLECULE
ZINC000015179664
 44 45 1 0 0
SMALL
USER_CHARGES


@<TRIPOS>ATOM
      1 C1         -7.0915    5.0691   54.1382 C.3     1  ZINC000015179664   -0.1600
      2 C2         -6.2284    4.0117   54.8295 C.3     1  ZINC000015179664    0.1800
      3 H3         -5.3231    4.4784   55.2174 H       1  ZINC000015179664    0.1200
      4 C4         -5.8558    2.9403   53.8373 C.ar    1  ZINC000015179664   -0.1000
      5 C5         -6.7286    1.8989   53.5844 C.ar    1  ZINC000015179664   -0.0700
      6 C6         -6.3867    0.9161   52.6740 C.ar    1  ZINC000015179664   -0.1200
      7 C7         -5.1724    0.9752   52.0166 C.ar    1  ZINC000015179664   -0.0500
      8 C8         -4.2998    2.0175   52.2688 C.ar    1  ZINC000015179664   -0.0400
      9 N9         -2.9991    2.0806   51.5651 N.pl3   1  ZINC000015179664    0.0300
     10 O10        -2.6976    1.2144   50.7638 O.2     1  ZINC000015179664   -0.1600
     11 O11        -2.2304    2.9989   51.7874 O.2     1  ZINC000015179664   -0.1500
     12 C12        -4.6433    3.0024   53.1757 C.ar    1  ZINC000015179664   -0.0400
     13 N13        -6.9813    3.4132   55.9346 N.am    1  ZINC000015179664   -0.6100
     14 C14        -8.4383    3.5560   55.9905 C.3     1  ZINC000015179664    0.0600
     15 C15        -6.3336    2.7311   56.8998 C.2     1  ZINC000015179664    0.5200
     16 O16        -5.1275    2.6116   56.8527 O.2     1  ZINC000015179664   -0.5200
     17 C17        -7.1077    2.1169   58.0375 C.3     1  ZINC000015179664   -0.1500
     18 C18        -7.3982    3.1861   59.0926 C.3     1  ZINC000015179664    0.1300
     19 N19        -7.2241    2.6131   60.4295 N.am    1  ZINC000015179664   -0.7300
     20 C20        -8.2075    1.8734   60.9790 C.2     1  ZINC000015179664    0.5800
     21 O21        -9.2404    1.6827   60.3655 O.2     1  ZINC000015179664   -0.5300
     22 C22        -8.0318    1.2962   62.3216 C.2     1  ZINC000015179664   -0.1500
     23 C23        -8.9256    0.4468   62.8956 C.2     1  ZINC000015179664   -0.2200
     24 S24        -8.4034   -0.0232   64.4485 S.3     1  ZINC000015179664    0.1900
     25 C25        -6.9434    0.9438   64.3325 C.2     1  ZINC000015179664   -0.2300
     26 C26        -6.8894    1.5688   63.1623 C.2     1  ZINC000015179664   -0.0900
     27 H27        -6.5313    5.5145   53.3159 H       1  ZINC000015179664    0.0800
     28 H28        -7.9968    4.6024   53.7502 H       1  ZINC000015179664    0.0600
     29 H29        -7.3610    5.8440   54.8559 H       1  ZINC000015179664    0.0700
     30 H30        -7.6774    1.8526   54.0980 H       1  ZINC000015179664    0.1500
     31 H31        -7.0683    0.1019   52.4770 H       1  ZINC000015179664    0.1500
     32 H32        -4.9051    0.2071   51.3060 H       1  ZINC000015179664    0.1600
     33 H33        -3.9618    3.8166   53.3728 H       1  ZINC000015179664    0.1600
     34 H34        -8.9044    2.7478   55.4272 H       1  ZINC000015179664    0.0600
     35 H35        -8.7680    3.5127   57.0285 H       1  ZINC000015179664    0.0800
     36 H36        -8.7263    4.5140   55.5574 H       1  ZINC000015179664    0.0800
     37 H37        -8.0476    1.7131   57.6612 H       1  ZINC000015179664    0.1000
     38 H38        -6.5210    1.3148   58.4850 H       1  ZINC000015179664    0.1000
     39 H39        -6.7097    4.0212   58.9627 H       1  ZINC000015179664    0.0800
     40 H40        -8.4231    3.5394   58.9793 H       1  ZINC000015179664    0.0800
     41 H41        -6.4008    2.7661   60.9193 H       1  ZINC000015179664    0.4000
     42 H42        -9.8421    0.1151   62.4304 H       1  ZINC000015179664    0.1700
     43 H43        -6.1914    1.0172   65.1042 H       1  ZINC000015179664    0.1700
     44 H44        -6.0784    2.2202   62.8720 H       1  ZINC000015179664    0.1600
@<TRIPOS>BOND
     1     1     2    1
     2     1    27    1
     3     1    28    1
     4     1    29    1
     5     2     3    1
     6     2     4    1
     7     2    13    1
     8     4    12   ar
     9     4     5   ar
    10     5     6   ar
    11     5    30    1
    12     6     7   ar
    13     6    31    1
    14     7     8   ar
    15     7    32    1
    16     8     9    1
    17     8    12   ar
    18     9    10    2
    19     9    11    2
    20    12    33    1
    21    13    14    1
    22    13    15   am
    23    14    34    1
    24    14    35    1
    25    14    36    1
    26    15    16    2
    27    15    17    1
    28    17    18    1
    29    17    37    1
    30    17    38    1
    31    18    19    1
    32    18    39    1
    33    18    40    1
    34    19    20   am
    35    19    41    1
    36    20    21    2
    37    20    22    1
    38    22    26    1
    39    22    23    2
    40    23    24    1
    41    23    42    1
    42    24    25    1
    43    25    26    2
    44    25    43    1
    45    26    44    1
@<TRIPOS>SUBSTRUCTURE
     1 ZINC000015179664        1 TEMP              0 ****  ****    0 ROOT


##########                                Name:    ZINC001456607258
##########                DOCK_Rotatable_Bonds:                   9
##########                         Heavy_Atoms:                  25
##########                    Molecular_Weight:             339.437
##########                DOCK_Rotatable_Bonds:                   9
##########                       Formal_Charge:          -0.0200009
##########                     HBond_Acceptors:                   5
##########                        HBond_Donors:                   2
##########                         Heavy_Atoms:                  25
##########                          Grid_Score:          -27.801821
##########                     Grid_vdw_energy:          -26.721861
##########                      Grid_es_energy:           -1.079959
##########           Internal_energy_repulsive:           12.199350

@<TRIPOS>MOLECULE
ZINC001456607258
 50 52 1 0 0
SMALL
USER_CHARGES


@<TRIPOS>ATOM
      1 C1         -5.8243    2.4779   57.2559 C.3     1  ZINC001456607258   -0.1600
      2 C2         -7.0894    3.0504   56.6133 C.3     1  ZINC001456607258   -0.1100
      3 C3         -7.1774    2.5857   55.1582 C.3     1  ZINC001456607258   -0.1000
      4 H4         -6.5938    1.6738   55.0321 H       1  ZINC001456607258    0.0900
      5 C5         -6.6232    3.6769   54.2399 C.3     1  ZINC001456607258   -0.0700
      6 C6         -5.7842    3.0454   53.1590 C.ar    1  ZINC001456607258   -0.0800
      7 C7         -6.3585    2.1585   52.2677 C.ar    1  ZINC001456607258   -0.1200
      8 C8         -5.5889    1.5792   51.2762 C.ar    1  ZINC001456607258   -0.1200
      9 C9         -4.2451    1.8872   51.1758 C.ar    1  ZINC001456607258   -0.1200
     10 C10        -3.6710    2.7748   52.0665 C.ar    1  ZINC001456607258   -0.1200
     11 C11        -4.4415    3.3574   53.0553 C.ar    1  ZINC001456607258   -0.1200
     12 C12        -8.6167    2.3141   54.8038 C.2     1  ZINC001456607258    0.5200
     13 O13        -9.4257    3.2175   54.8183 O.2     1  ZINC001456607258   -0.5300
     14 N14        -9.0050    1.0672   54.4708 N.am    1  ZINC001456607258   -0.7300
     15 C15       -10.4042    0.8032   54.1263 C.3     1  ZINC001456607258    0.1300
     16 C16       -10.8579   -0.4956   54.7957 C.3     1  ZINC001456607258   -0.1400
     17 C17       -10.6764   -0.5013   56.3243 C.3     1  ZINC001456607258    0.1100
     18 N18       -12.0056   -1.1404   56.3792 N.am    1  ZINC001456607258   -0.6500
     19 C19       -12.6336   -1.9394   57.2645 C.2     1  ZINC001456607258    0.6100
     20 O20       -12.0699   -2.2728   58.2894 O.2     1  ZINC001456607258   -0.5400
     21 C21       -14.0023   -2.4087   56.9908 C.2     1  ZINC001456607258   -0.2300
     22 C22       -14.6190   -3.5041   57.5297 C.2     1  ZINC001456607258    0.0400
     23 N23       -15.8633   -3.5843   57.0215 N.pl3   1  ZINC001456607258   -0.5500
     24 C24       -16.0861   -2.5576   56.1507 C.2     1  ZINC001456607258   -0.0200
     25 C25       -14.9822   -1.7920   56.0901 C.2     1  ZINC001456607258   -0.1400
     26 C26       -12.3706   -0.5532   55.0755 C.3     1  ZINC001456607258    0.1100
     27 H27        -5.7134    2.8817   58.2623 H       1  ZINC001456607258    0.0600
     28 H28        -5.9021    1.3918   57.3067 H       1  ZINC001456607258    0.0600
     29 H29        -4.9563    2.7524   56.6566 H       1  ZINC001456607258    0.0600
     30 H30        -7.9649    2.7003   57.1601 H       1  ZINC001456607258    0.0800
     31 H31        -7.0524    4.1393   56.6454 H       1  ZINC001456607258    0.0700
     32 H32        -7.4495    4.2236   53.7858 H       1  ZINC001456607258    0.0800
     33 H33        -6.0089    4.3640   54.8218 H       1  ZINC001456607258    0.0900
     34 H34        -7.4085    1.9178   52.3462 H       1  ZINC001456607258    0.1200
     35 H35        -6.0376    0.8858   50.5803 H       1  ZINC001456607258    0.1200
     36 H36        -3.6437    1.4341   50.4017 H       1  ZINC001456607258    0.1200
     37 H37        -2.6210    3.0151   51.9883 H       1  ZINC001456607258    0.1200
     38 H38        -3.9930    4.0509   53.7512 H       1  ZINC001456607258    0.1200
     39 H39        -8.3580    0.3446   54.4592 H       1  ZINC001456607258    0.4000
     40 H40       -11.0261    1.6279   54.4747 H       1  ZINC001456607258    0.0700
     41 H41       -10.5004    0.7073   53.0448 H       1  ZINC001456607258    0.0800
     42 H42       -10.4688   -1.3864   54.3025 H       1  ZINC001456607258    0.1100
     43 H43        -9.8656   -1.1437   56.6681 H       1  ZINC001456607258    0.0800
     44 H44       -10.6489    0.4942   56.7673 H       1  ZINC001456607258    0.0900
     45 H45       -14.1819   -4.1887   58.2416 H       1  ZINC001456607258    0.1700
     46 H46       -16.5090   -4.2736   57.2425 H       1  ZINC001456607258    0.4200
     47 H47       -17.0012   -2.3852   55.6038 H       1  ZINC001456607258    0.1700
     48 H48       -14.8422   -0.9041   55.4913 H       1  ZINC001456607258    0.1500
     49 H49       -12.8410    0.4273   55.1515 H       1  ZINC001456607258    0.0900
     50 H50       -12.9127   -1.2368   54.4221 H       1  ZINC001456607258    0.0900
@<TRIPOS>BOND
     1     1     2    1
     2     1    27    1
     3     1    28    1
     4     1    29    1
     5     2     3    1
     6     2    30    1
     7     2    31    1
     8     3     4    1
     9     3     5    1
    10     3    12    1
    11     5     6    1
    12     5    32    1
    13     5    33    1
    14     6    11   ar
    15     6     7   ar
    16     7     8   ar
    17     7    34    1
    18     8     9   ar
    19     8    35    1
    20     9    10   ar
    21     9    36    1
    22    10    11   ar
    23    10    37    1
    24    11    38    1
    25    12    13    2
    26    12    14   am
    27    14    15    1
    28    14    39    1
    29    15    16    1
    30    15    40    1
    31    15    41    1
    32    16    26    1
    33    16    17    1
    34    16    42    1
    35    17    18    1
    36    17    43    1
    37    17    44    1
    38    18    19   am
    39    18    26    1
    40    19    20    2
    41    19    21    1
    42    21    25    1
    43    21    22    2
    44    22    23    1
    45    22    45    1
    46    23    24    1
    47    23    46    1
    48    24    25    2
    49    24    47    1
    50    25    48    1
    51    26    49    1
    52    26    50    1
@<TRIPOS>SUBSTRUCTURE
     1 ZINC001456607258        1 TEMP              0 ****  ****    0 ROOT


##########                                Name:    ZINC000027473870
##########                DOCK_Rotatable_Bonds:                  10
##########                         Heavy_Atoms:                  31
##########                    Molecular_Weight:             422.502
##########                DOCK_Rotatable_Bonds:                  10
##########                       Formal_Charge:        -7.45058e-08
##########                     HBond_Acceptors:                   7
##########                        HBond_Donors:                   1
##########                         Heavy_Atoms:                  31
##########                          Grid_Score:          -27.786345
##########                     Grid_vdw_energy:          -27.645863
##########                      Grid_es_energy:           -0.140482
##########           Internal_energy_repulsive:           24.220610

@<TRIPOS>MOLECULE
ZINC000027473870
 58 60 1 0 0
SMALL
USER_CHARGES


@<TRIPOS>ATOM
      1 C1         -7.0960    2.9337   55.5150 C.3     1  ZINC000027473870   -0.1400
      2 C2         -6.8920    1.9798   54.3363 C.3     1  ZINC000027473870   -0.0800
      3 C3         -7.2065    2.6975   53.0490 C.2     1  ZINC000027473870    0.1700
      4 C4         -8.4618    2.8975   52.5100 C.2     1  ZINC000027473870   -0.2900
      5 C5         -9.7428    2.4496   53.0857 C.2     1  ZINC000027473870    0.6000
      6 O6         -9.7709    1.4923   53.8351 O.2     1  ZINC000027473870   -0.5400
      7 N7        -10.8828    3.1010   52.7816 N.am    1  ZINC000027473870   -0.7200
      8 C8        -12.1556    2.6569   53.3552 C.3     1  ZINC000027473870    0.1600
      9 C9        -12.8476    1.7326   52.3868 C.ar    1  ZINC000027473870   -0.0900
     10 C10       -12.4726    0.4027   52.3164 C.ar    1  ZINC000027473870   -0.1100
     11 C11       -13.1017   -0.4487   51.4318 C.ar    1  ZINC000027473870   -0.1100
     12 C12       -14.1188    0.0342   50.6069 C.ar    1  ZINC000027473870   -0.1200
     13 C13       -14.7977   -0.8726   49.6567 C.2     1  ZINC000027473870    0.5600
     14 O14       -14.1604   -1.4207   48.7788 O.2     1  ZINC000027473870   -0.5300
     15 N15       -16.1233   -1.0915   49.7641 N.am    1  ZINC000027473870   -0.6100
     16 C16       -16.7959   -1.9900   48.8227 C.3     1  ZINC000027473870    0.1100
     17 C17       -17.2853   -1.1890   47.6145 C.3     1  ZINC000027473870   -0.1700
     18 C18       -16.8914   -0.4308   50.8224 C.3     1  ZINC000027473870    0.0900
     19 C19       -16.9035   -1.3145   52.0713 C.3     1  ZINC000027473870   -0.1800
     20 C20       -14.4926    1.3768   50.6832 C.ar    1  ZINC000027473870   -0.0700
     21 C21       -13.8589    2.2164   51.5759 C.ar    1  ZINC000027473870   -0.1000
     22 C22        -8.2889    3.6123   51.3031 C.2     1  ZINC000027473870    0.0900
     23 N23        -7.0119    3.8229   51.1370 N.2     1  ZINC000027473870   -0.2800
     24 N24        -6.3163    3.2666   52.2163 N.pl3   1  ZINC000027473870   -0.3100
     25 C25        -4.9257    3.2899   52.3947 C.ar    1  ZINC000027473870    0.1300
     26 C26        -4.3531    4.1983   53.2747 C.ar    1  ZINC000027473870   -0.0900
     27 C27        -2.9833    4.2194   53.4495 C.ar    1  ZINC000027473870   -0.1300
     28 C28        -2.1811    3.3353   52.7476 C.ar    1  ZINC000027473870    0.1100
     29 F29        -0.8413    3.3571   52.9201 F       1  ZINC000027473870   -0.1300
     30 C30        -2.7506    2.4285   51.8693 C.ar    1  ZINC000027473870   -0.1400
     31 C31        -4.1204    2.4009   51.6958 C.ar    1  ZINC000027473870   -0.0700
     32 H32        -6.9540    2.3916   56.4499 H       1  ZINC000027473870    0.0700
     33 H33        -6.3731    3.7472   55.4533 H       1  ZINC000027473870    0.0700
     34 H34        -8.1061    3.3419   55.4814 H       1  ZINC000027473870    0.0500
     35 H35        -5.8566    1.6396   54.3190 H       1  ZINC000027473870    0.1200
     36 H36        -7.5548    1.1213   54.4448 H       1  ZINC000027473870    0.0800
     37 H37       -10.8606    3.8639   52.1828 H       1  ZINC000027473870    0.4000
     38 H38       -11.9683    2.1293   54.2903 H       1  ZINC000027473870    0.0800
     39 H39       -12.7893    3.5227   53.5471 H       1  ZINC000027473870    0.0800
     40 H40       -11.6855    0.0303   52.9552 H       1  ZINC000027473870    0.1300
     41 H41       -12.8076   -1.4865   51.3773 H       1  ZINC000027473870    0.1500
     42 H42       -16.0970   -2.7578   48.4907 H       1  ZINC000027473870    0.0800
     43 H43       -17.6465   -2.4614   49.3150 H       1  ZINC000027473870    0.0800
     44 H44       -17.7858   -1.8576   46.9140 H       1  ZINC000027473870    0.0700
     45 H45       -17.9842   -0.4213   47.9464 H       1  ZINC000027473870    0.0600
     46 H46       -16.4346   -0.7177   47.1222 H       1  ZINC000027473870    0.0600
     47 H47       -16.4314    0.5283   51.0604 H       1  ZINC000027473870    0.0800
     48 H48       -17.9141   -0.2688   50.4819 H       1  ZINC000027473870    0.0900
     49 H49       -17.6709   -0.9602   52.7596 H       1  ZINC000027473870    0.0700
     50 H50       -17.1187   -2.3441   51.7859 H       1  ZINC000027473870    0.0700
     51 H51       -15.9294   -1.2685   52.5584 H       1  ZINC000027473870    0.0600
     52 H52       -15.2786    1.7568   50.0474 H       1  ZINC000027473870    0.1300
     53 H53       -14.1474    3.2554   51.6363 H       1  ZINC000027473870    0.1300
     54 H54        -9.0762    3.9285   50.6348 H       1  ZINC000027473870    0.1900
     55 H55        -4.9782    4.8882   53.8221 H       1  ZINC000027473870    0.1500
     56 H56        -2.5374    4.9261   54.1338 H       1  ZINC000027473870    0.1500
     57 H57        -2.1233    1.7400   51.3225 H       1  ZINC000027473870    0.1500
     58 H58        -4.5641    1.6933   51.0111 H       1  ZINC000027473870    0.1400
@<TRIPOS>BOND
     1     1     2    1
     2     1    32    1
     3     1    33    1
     4     1    34    1
     5     2     3    1
     6     2    35    1
     7     2    36    1
     8     3    24    1
     9     3     4    2
    10     4     5    1
    11     4    22    1
    12     5     6    2
    13     5     7   am
    14     7     8    1
    15     7    37    1
    16     8     9    1
    17     8    38    1
    18     8    39    1
    19     9    21   ar
    20     9    10   ar
    21    10    11   ar
    22    10    40    1
    23    11    12   ar
    24    11    41    1
    25    12    13    1
    26    12    20   ar
    27    13    14    2
    28    13    15   am
    29    15    16    1
    30    15    18    1
    31    16    17    1
    32    16    42    1
    33    16    43    1
    34    17    44    1
    35    17    45    1
    36    17    46    1
    37    18    19    1
    38    18    47    1
    39    18    48    1
    40    19    49    1
    41    19    50    1
    42    19    51    1
    43    20    21   ar
    44    20    52    1
    45    21    53    1
    46    22    23    2
    47    22    54    1
    48    23    24    1
    49    24    25    1
    50    25    31   ar
    51    25    26   ar
    52    26    27   ar
    53    26    55    1
    54    27    28   ar
    55    27    56    1
    56    28    29    1
    57    28    30   ar
    58    30    31   ar
    59    30    57    1
    60    31    58    1
@<TRIPOS>SUBSTRUCTURE
     1 ZINC000027473870        1 TEMP              0 ****  ****    0 ROOT


##########                                Name:    ZINC000444811358
##########                DOCK_Rotatable_Bonds:                  11
##########                         Heavy_Atoms:                  27
##########                    Molecular_Weight:             374.455
##########                DOCK_Rotatable_Bonds:                  11
##########                       Formal_Charge:          0.00999966
##########                     HBond_Acceptors:                   6
##########                        HBond_Donors:                   2
##########                         Heavy_Atoms:                  27
##########                          Grid_Score:          -27.781454
##########                     Grid_vdw_energy:          -27.283491
##########                      Grid_es_energy:           -0.497963
##########           Internal_energy_repulsive:           21.192160

@<TRIPOS>MOLECULE
ZINC000444811358
 54 55 1 0 0
SMALL
USER_CHARGES


@<TRIPOS>ATOM
      1 C1         -5.2910    1.7951   51.8310 C.3     1  ZINC000444811358   -0.1100
      2 C2         -6.5749    1.6167   52.5996 C.ar    1  ZINC000444811358   -0.1300
      3 C3         -7.1205    0.3554   52.7480 C.ar    1  ZINC000444811358   -0.0700
      4 C4         -8.2976    0.1881   53.4516 C.ar    1  ZINC000444811358   -0.1500
      5 C5         -8.9337    1.2883   54.0112 C.ar    1  ZINC000444811358    0.1700
      6 N6        -10.1257    1.1207   54.7245 N.am    1  ZINC000444811358   -0.6800
      7 C7        -10.1308    0.4131   55.8716 C.2     1  ZINC000444811358    0.5200
      8 O8         -9.1021   -0.0784   56.2855 O.2     1  ZINC000444811358   -0.5000
      9 C9        -11.4147    0.2326   56.6399 C.3     1  ZINC000444811358    0.0200
     10 N10       -11.3080   -0.9536   57.4999 N.3     1  ZINC000444811358   -0.5000
     11 C11       -11.9271   -0.7115   58.8098 C.3     1  ZINC000444811358    0.0200
     12 C12       -11.0202    0.1970   59.6425 C.3     1  ZINC000444811358    0.1100
     13 H13       -10.5397    0.9266   58.9907 H       1  ZINC000444811358    0.1200
     14 O14       -11.8019    0.8783   60.6257 O.3     1  ZINC000444811358   -0.5400
     15 C15        -9.9509   -0.6485   60.3374 C.3     1  ZINC000444811358    0.0300
     16 O16        -8.7806    0.1438   60.5493 O.3     1  ZINC000444811358   -0.3000
     17 C17        -8.4038    0.3552   61.8376 C.ar    1  ZINC000444811358    0.1300
     18 C18        -9.3627    0.5860   62.8132 C.ar    1  ZINC000444811358   -0.2100
     19 C19        -8.9771    0.8002   64.1223 C.ar    1  ZINC000444811358   -0.0800
     20 C20        -7.6365    0.7850   64.4606 C.ar    1  ZINC000444811358   -0.1600
     21 C21        -6.6788    0.5556   63.4902 C.ar    1  ZINC000444811358   -0.0800
     22 C22        -7.0596    0.3348   62.1807 C.ar    1  ZINC000444811358   -0.1500
     23 C23       -11.8976   -2.1309   56.8485 C.3     1  ZINC000444811358    0.0700
     24 C24       -11.2343   -3.3990   57.3898 C.3     1  ZINC000444811358   -0.1400
     25 C25       -13.3989   -2.1765   57.1397 C.3     1  ZINC000444811358   -0.1900
     26 C26        -8.3847    2.5550   53.8621 C.ar    1  ZINC000444811358   -0.1500
     27 C27        -7.2032    2.7162   53.1611 C.ar    1  ZINC000444811358    0.1200
     28 F28        -6.6675    3.9478   53.0149 F       1  ZINC000444811358   -0.1300
     29 H29        -4.4445    1.7031   52.5114 H       1  ZINC000444811358    0.0700
     30 H30        -5.2209    1.0298   51.0581 H       1  ZINC000444811358    0.0700
     31 H31        -5.2791    2.7817   51.3676 H       1  ZINC000444811358    0.0700
     32 H32        -6.6260   -0.5006   52.3129 H       1  ZINC000444811358    0.1400
     33 H33        -8.7230   -0.7979   53.5661 H       1  ZINC000444811358    0.1300
     34 H34       -10.9484    1.5137   54.3936 H       1  ZINC000444811358    0.4100
     35 H35       -11.5961    1.1131   57.2563 H       1  ZINC000444811358    0.1300
     36 H36       -12.2409    0.1016   55.9411 H       1  ZINC000444811358    0.0700
     37 H37       -12.8950   -0.2299   58.6708 H       1  ZINC000444811358    0.0500
     38 H38       -12.0646   -1.6607   59.3278 H       1  ZINC000444811358    0.1000
     39 H39       -11.3660    0.9639   61.4847 H       1  ZINC000444811358    0.3700
     40 H40       -10.3313   -0.9986   61.2969 H       1  ZINC000444811358    0.0600
     41 H41        -9.7013   -1.5050   59.7111 H       1  ZINC000444811358    0.0700
     42 H42       -10.4100    0.5986   62.5494 H       1  ZINC000444811358    0.1300
     43 H43        -9.7232    0.9799   64.8822 H       1  ZINC000444811358    0.1200
     44 H44        -7.3370    0.9530   65.4846 H       1  ZINC000444811358    0.1200
     45 H45        -5.6322    0.5446   63.7568 H       1  ZINC000444811358    0.1300
     46 H46        -6.3112    0.1557   61.4230 H       1  ZINC000444811358    0.1300
     47 H47       -11.7379   -2.0686   55.7720 H       1  ZINC000444811358    0.0900
     48 H48       -11.5044   -3.5314   58.4375 H       1  ZINC000444811358    0.0500
     49 H49       -11.5744   -4.2605   56.8153 H       1  ZINC000444811358    0.0600
     50 H50       -10.1516   -3.3084   57.3024 H       1  ZINC000444811358    0.0700
     51 H51       -13.8714   -1.2732   56.7540 H       1  ZINC000444811358    0.0500
     52 H52       -13.8363   -3.0501   56.6564 H       1  ZINC000444811358    0.0700
     53 H53       -13.5585   -2.2389   58.2161 H       1  ZINC000444811358    0.0600
     54 H54        -8.8775    3.4125   54.2959 H       1  ZINC000444811358    0.1500
@<TRIPOS>BOND
     1     1     2    1
     2     1    29    1
     3     1    30    1
     4     1    31    1
     5     2    27   ar
     6     2     3   ar
     7     3     4   ar
     8     3    32    1
     9     4     5   ar
    10     4    33    1
    11     5     6    1
    12     5    26   ar
    13     6     7   am
    14     6    34    1
    15     7     8    2
    16     7     9    1
    17     9    10    1
    18     9    35    1
    19     9    36    1
    20    10    11    1
    21    10    23    1
    22    11    12    1
    23    11    37    1
    24    11    38    1
    25    12    13    1
    26    12    14    1
    27    12    15    1
    28    14    39    1
    29    15    16    1
    30    15    40    1
    31    15    41    1
    32    16    17    1
    33    17    22   ar
    34    17    18   ar
    35    18    19   ar
    36    18    42    1
    37    19    20   ar
    38    19    43    1
    39    20    21   ar
    40    20    44    1
    41    21    22   ar
    42    21    45    1
    43    22    46    1
    44    23    24    1
    45    23    25    1
    46    23    47    1
    47    24    48    1
    48    24    49    1
    49    24    50    1
    50    25    51    1
    51    25    52    1
    52    25    53    1
    53    26    27   ar
    54    26    54    1
    55    27    28    1
@<TRIPOS>SUBSTRUCTURE
     1 ZINC000444811358        1 TEMP              0 ****  ****    0 ROOT


##########                                Name:    ZINC000599228306
##########                DOCK_Rotatable_Bonds:                   8
##########                         Heavy_Atoms:                  25
##########                    Molecular_Weight:             379.382
##########                DOCK_Rotatable_Bonds:                   8
##########                       Formal_Charge:        -4.09782e-08
##########                     HBond_Acceptors:                  10
##########                        HBond_Donors:                   1
##########                         Heavy_Atoms:                  25
##########                          Grid_Score:          -27.776978
##########                     Grid_vdw_energy:          -27.578484
##########                      Grid_es_energy:           -0.198495
##########           Internal_energy_repulsive:           41.201687

@<TRIPOS>MOLECULE
ZINC000599228306
 44 44 1 0 0
SMALL
USER_CHARGES


@<TRIPOS>ATOM
      1 C1          1.0592    2.4558   50.5847 C.3     1  ZINC000599228306    0.0400
      2 O2          0.0339    2.9417   51.4908 O.3     1  ZINC000599228306   -0.3500
      3 C3         -1.2059    2.4366   51.3390 C.2     1  ZINC000599228306    0.5100
      4 O4         -1.4119    1.5706   50.5122 O.2     1  ZINC000599228306   -0.4800
      5 C5         -2.3135    2.9354   52.1768 C.ar    1  ZINC000599228306   -0.1500
      6 C6         -2.0437    3.5731   53.3898 C.ar    1  ZINC000599228306   -0.0100
      7 C7         -3.0852    4.0373   54.1687 C.ar    1  ZINC000599228306    0.0700
      8 F8         -2.8258    4.6544   55.3423 F       1  ZINC000599228306   -0.1200
      9 C9         -4.3962    3.8723   53.7495 C.ar    1  ZINC000599228306    0.0100
     10 C10        -4.6713    3.2422   52.5502 C.ar    1  ZINC000599228306   -0.7100
     11 S11        -6.3416    3.0386   52.0272 S.o2    1  ZINC000599228306    2.7000
     12 O12        -6.6779    4.2086   51.2943 O.2     1  ZINC000599228306   -0.9200
     13 O13        -6.4357    1.7283   51.4855 O.2     1  ZINC000599228306   -0.9300
     14 N14        -7.2861    3.0512   53.3875 N.am    1  ZINC000599228306   -1.1000
     15 C15        -7.0799    2.0447   54.4318 C.3     1  ZINC000599228306    0.1600
     16 H16        -6.0791    1.6231   54.3374 H       1  ZINC000599228306    0.1300
     17 C17        -7.2305    2.6982   55.8069 C.3     1  ZINC000599228306   -0.1700
     18 C18        -8.1029    0.9483   54.2818 C.2     1  ZINC000599228306    0.4700
     19 O19        -7.9339    0.0715   53.4678 O.2     1  ZINC000599228306   -0.4900
     20 O20        -9.2019    0.9459   55.0523 O.3     1  ZINC000599228306   -0.3400
     21 C21       -10.2406   -0.0115   54.7163 C.3     1  ZINC000599228306    0.1200
     22 C22        -9.6963   -1.4322   54.8780 C.3     1  ZINC000599228306   -0.1900
     23 C23       -11.4371    0.1855   55.6493 C.3     1  ZINC000599228306   -0.1400
     24 C24       -10.6828    0.2034   53.2674 C.3     1  ZINC000599228306   -0.1800
     25 C25        -3.6387    2.7770   51.7572 C.ar    1  ZINC000599228306    0.2500
     26 F26        -3.9091    2.1618   50.5852 F       1  ZINC000599228306   -0.0900
     27 H27         2.0073    2.9418   50.8147 H       1  ZINC000599228306    0.1100
     28 H28         1.1659    1.3773   50.7016 H       1  ZINC000599228306    0.0700
     29 H29         0.7739    2.6833   49.5576 H       1  ZINC000599228306    0.0700
     30 H30        -1.0230    3.7025   53.7180 H       1  ZINC000599228306    0.1700
     31 H31        -5.2066    4.2374   54.3629 H       1  ZINC000599228306    0.1800
     32 H32        -7.9758    3.7251   53.4928 H       1  ZINC000599228306    0.4300
     33 H33        -7.0770    1.9492   56.5839 H       1  ZINC000599228306    0.0900
     34 H34        -6.4905    3.4911   55.9153 H       1  ZINC000599228306    0.0700
     35 H35        -8.2313    3.1197   55.9011 H       1  ZINC000599228306    0.0800
     36 H36        -9.3812   -1.5854   55.9102 H       1  ZINC000599228306    0.0600
     37 H37       -10.4759   -2.1509   54.6256 H       1  ZINC000599228306    0.0700
     38 H38        -8.8438   -1.5726   54.2133 H       1  ZINC000599228306    0.0800
     39 H39       -11.8248    1.1976   55.5341 H       1  ZINC000599228306    0.0700
     40 H40       -12.2168   -0.5332   55.3970 H       1  ZINC000599228306    0.0800
     41 H41       -11.1220    0.0324   56.6815 H       1  ZINC000599228306    0.0700
     42 H42        -9.8304    0.0630   52.6027 H       1  ZINC000599228306    0.0800
     43 H43       -11.4626   -0.5153   53.0151 H       1  ZINC000599228306    0.0700
     44 H44       -11.0706    1.2155   53.1522 H       1  ZINC000599228306    0.0600
@<TRIPOS>BOND
     1     1     2    1
     2     1    27    1
     3     1    28    1
     4     1    29    1
     5     2     3    1
     6     3     4    2
     7     3     5    1
     8     5    25   ar
     9     5     6   ar
    10     6     7   ar
    11     6    30    1
    12     7     8    1
    13     7     9   ar
    14     9    10   ar
    15     9    31    1
    16    10    11    1
    17    10    25   ar
    18    11    12    2
    19    11    13    2
    20    11    14   am
    21    14    15    1
    22    14    32    1
    23    15    16    1
    24    15    17    1
    25    15    18    1
    26    17    33    1
    27    17    34    1
    28    17    35    1
    29    18    19    2
    30    18    20    1
    31    20    21    1
    32    21    22    1
    33    21    23    1
    34    21    24    1
    35    22    36    1
    36    22    37    1
    37    22    38    1
    38    23    39    1
    39    23    40    1
    40    23    41    1
    41    24    42    1
    42    24    43    1
    43    24    44    1
    44    25    26    1
@<TRIPOS>SUBSTRUCTURE
     1 ZINC000599228306        1 TEMP              0 ****  ****    0 ROOT


##########                                Name:    ZINC000549659617
##########                DOCK_Rotatable_Bonds:                   9
##########                         Heavy_Atoms:                  28
##########                    Molecular_Weight:              418.48
##########                DOCK_Rotatable_Bonds:                   9
##########                       Formal_Charge:          0.00999956
##########                     HBond_Acceptors:                   9
##########                        HBond_Donors:                   1
##########                         Heavy_Atoms:                  28
##########                          Grid_Score:          -27.773262
##########                     Grid_vdw_energy:          -28.213011
##########                      Grid_es_energy:            0.439748
##########           Internal_energy_repulsive:           27.610069

@<TRIPOS>MOLECULE
ZINC000549659617
 53 55 1 0 0
SMALL
USER_CHARGES


@<TRIPOS>ATOM
      1 C1         -9.2136   -3.4221   56.9194 C.3     1  ZINC000549659617   -0.1500
      2 C2        -10.7274   -3.2006   56.8999 C.3     1  ZINC000549659617   -0.1500
      3 C3        -11.0987   -2.1264   57.9242 C.3     1  ZINC000549659617    0.1100
      4 N4        -12.0851   -1.2145   57.3396 N.am    1  ZINC000549659617   -0.6100
      5 C5        -11.6910   -0.2627   56.4706 C.2     1  ZINC000549659617    0.7100
      6 O6        -12.5097    0.4933   55.9843 O.2     1  ZINC000549659617   -0.5700
      7 N7        -10.3891   -0.1487   56.1408 N.am    1  ZINC000549659617   -0.7400
      8 C8         -9.9609    0.8849   55.1949 C.3     1  ZINC000549659617    0.2300
      9 H9        -10.7174    1.6681   55.1455 H       1  ZINC000549659617    0.1100
     10 C10        -8.6540    1.4772   55.6557 C.ar    1  ZINC000549659617   -0.0900
     11 C11        -8.1359    1.1320   56.8898 C.ar    1  ZINC000549659617   -0.0800
     12 C12        -6.9369    1.6754   57.3126 C.ar    1  ZINC000549659617   -0.1100
     13 C13        -6.2563    2.5633   56.5010 C.ar    1  ZINC000549659617   -0.0700
     14 C14        -6.7741    2.9078   55.2662 C.ar    1  ZINC000549659617   -0.1800
     15 C15        -6.0322    3.8763   54.3816 C.3     1  ZINC000549659617    0.5100
     16 F16        -5.2700    4.7416   55.1738 F       1  ZINC000549659617   -0.1800
     17 F17        -5.1881    3.1679   53.5196 F       1  ZINC000549659617   -0.1700
     18 F18        -6.9497    4.6184   53.6301 F       1  ZINC000549659617   -0.1700
     19 C19        -7.9706    2.3614   54.8418 C.ar    1  ZINC000549659617   -0.0500
     20 C20        -9.7786    0.2635   53.8087 C.3     1  ZINC000549659617   -0.1700
     21 C21        -9.1211   -1.1159   53.7337 C.3     1  ZINC000549659617   -0.1700
     22 C22       -10.6209   -0.9681   53.4702 C.3     1  ZINC000549659617   -0.1800
     23 C23       -13.4999   -1.3372   57.6995 C.3     1  ZINC000549659617    0.1700
     24 H24       -14.1010   -0.6695   57.0825 H       1  ZINC000549659617    0.1100
     25 C25       -13.6963   -0.9991   59.1878 C.3     1  ZINC000549659617   -0.1400
     26 C26       -15.1035   -1.4590   59.6177 C.3     1  ZINC000549659617   -0.5900
     27 S27       -15.5048   -2.8601   58.5124 S.o2    1  ZINC000549659617    2.3900
     28 O28       -15.5297   -4.0636   59.2677 O.2     1  ZINC000549659617   -0.9300
     29 O29       -16.6156   -2.5134   57.6968 O.2     1  ZINC000549659617   -0.9400
     30 C30       -13.9707   -2.8023   57.5105 C.3     1  ZINC000549659617   -0.6100
     31 H31        -8.9490   -4.1874   56.1897 H       1  ZINC000549659617    0.0600
     32 H32        -8.7068   -2.4903   56.6687 H       1  ZINC000549659617    0.0600
     33 H33        -8.9067   -3.7466   57.9137 H       1  ZINC000549659617    0.0600
     34 H34       -11.0344   -2.8761   55.9056 H       1  ZINC000549659617    0.0700
     35 H35       -11.2342   -4.1325   57.1506 H       1  ZINC000549659617    0.0700
     36 H36       -11.5219   -2.5999   58.8101 H       1  ZINC000549659617    0.0800
     37 H37       -10.2063   -1.5661   58.2029 H       1  ZINC000549659617    0.0900
     38 H38        -9.7357   -0.7510   56.5297 H       1  ZINC000549659617    0.4000
     39 H39        -8.6678    0.4382   57.5239 H       1  ZINC000549659617    0.1300
     40 H40        -6.5325    1.4063   58.2771 H       1  ZINC000549659617    0.1400
     41 H41        -5.3201    2.9883   56.8315 H       1  ZINC000549659617    0.1400
     42 H42        -8.3750    2.6304   53.8772 H       1  ZINC000549659617    0.1400
     43 H43        -9.5681    0.9663   53.0025 H       1  ZINC000549659617    0.1100
     44 H44        -8.4776   -1.3208   52.8781 H       1  ZINC000549659617    0.0900
     45 H45        -8.8182   -1.5808   54.6719 H       1  ZINC000549659617    0.0900
     46 H46       -11.3048   -1.3357   54.2352 H       1  ZINC000549659617    0.1200
     47 H47       -10.9643   -1.0758   52.4414 H       1  ZINC000549659617    0.0900
     48 H48       -12.9440   -1.5161   59.7834 H       1  ZINC000549659617    0.1100
     49 H49       -13.6016    0.0768   59.3348 H       1  ZINC000549659617    0.0900
     50 H50       -15.0934   -1.7876   60.6570 H       1  ZINC000549659617    0.1400
     51 H51       -15.8234   -0.6519   59.4822 H       1  ZINC000549659617    0.1400
     52 H52       -14.1853   -3.0086   56.4620 H       1  ZINC000549659617    0.1400
     53 H53       -13.2284   -3.4996   57.8990 H       1  ZINC000549659617    0.1600
@<TRIPOS>BOND
     1     1     2    1
     2     1    31    1
     3     1    32    1
     4     1    33    1
     5     2     3    1
     6     2    34    1
     7     2    35    1
     8     3     4    1
     9     3    36    1
    10     3    37    1
    11     4     5   am
    12     4    23    1
    13     5     6    2
    14     5     7   am
    15     7     8    1
    16     7    38    1
    17     8     9    1
    18     8    10    1
    19     8    20    1
    20    10    19   ar
    21    10    11   ar
    22    11    12   ar
    23    11    39    1
    24    12    13   ar
    25    12    40    1
    26    13    14   ar
    27    13    41    1
    28    14    15    1
    29    14    19   ar
    30    15    16    1
    31    15    17    1
    32    15    18    1
    33    19    42    1
    34    20    22    1
    35    20    21    1
    36    20    43    1
    37    21    22    1
    38    21    44    1
    39    21    45    1
    40    22    46    1
    41    22    47    1
    42    23    24    1
    43    23    30    1
    44    23    25    1
    45    25    26    1
    46    25    48    1
    47    25    49    1
    48    26    27    1
    49    26    50    1
    50    26    51    1
    51    27    28    2
    52    27    29    2
    53    27    30    1
    54    30    52    1
    55    30    53    1
@<TRIPOS>SUBSTRUCTURE
     1 ZINC000549659617        1 TEMP              0 ****  ****    0 ROOT


##########                                Name:    ZINC000185180600
##########                DOCK_Rotatable_Bonds:                   7
##########                         Heavy_Atoms:                  26
##########                    Molecular_Weight:             395.953
##########                DOCK_Rotatable_Bonds:                   7
##########                       Formal_Charge:          0.00999977
##########                     HBond_Acceptors:                   7
##########                        HBond_Donors:                   0
##########                         Heavy_Atoms:                  26
##########                          Grid_Score:          -27.770103
##########                     Grid_vdw_energy:          -25.356304
##########                      Grid_es_energy:           -2.413800
##########           Internal_energy_repulsive:           28.976179

@<TRIPOS>MOLECULE
ZINC000185180600
 52 53 1 0 0
SMALL
USER_CHARGES


@<TRIPOS>ATOM
      1 C1         -7.2876    1.0921   67.4302 C.3     1  ZINC000185180600   -0.1500
      2 C2         -7.7273    1.9427   66.2368 C.3     1  ZINC000185180600   -0.0900
      3 C3         -6.7447    1.7459   65.0806 C.3     1  ZINC000185180600   -0.1500
      4 C4         -9.1280    1.5149   65.7942 C.3     1  ZINC000185180600   -0.1300
      5 C5         -9.5682    2.3664   64.6017 C.3     1  ZINC000185180600    0.1300
      6 H6         -8.8168    2.3054   63.8145 H       1  ZINC000185180600    0.1100
      7 C7         -9.7254    3.8223   65.0450 C.3     1  ZINC000185180600   -0.1600
      8 N8        -10.8493    1.8697   64.0934 N.am    1  ZINC000185180600   -0.6000
      9 C9        -12.1047    2.3563   64.6708 C.3     1  ZINC000185180600    0.0700
     10 C10       -10.8730    0.9651   63.0947 C.2     1  ZINC000185180600    0.5400
     11 O11       -11.9336    0.5528   62.6751 O.2     1  ZINC000185180600   -0.5300
     12 C12        -9.5818    0.4657   62.4994 C.3     1  ZINC000185180600   -0.5000
     13 S13        -9.0663    1.5729   61.1581 S.o     1  ZINC000185180600    1.3200
     14 O14       -10.0318    1.5361   60.1161 O.2     1  ZINC000185180600   -0.8000
     15 C15        -7.5216    0.8193   60.5779 C.3     1  ZINC000185180600   -0.3900
     16 C16        -6.9587    1.6368   59.4440 C.2     1  ZINC000185180600    0.1000
     17 N17        -7.0597    1.3536   58.1702 N.2     1  ZINC000185180600   -0.2800
     18 N18        -6.4059    2.3580   57.4449 N.pl3   1  ZINC000185180600   -0.3200
     19 C19        -6.2870    2.4239   56.0494 C.ar    1  ZINC000185180600    0.1700
     20 C20        -7.2265    1.7981   55.2412 C.ar    1  ZINC000185180600   -0.1300
     21 C21        -7.1072    1.8643   53.8669 C.ar    1  ZINC000185180600   -0.0800
     22 C22        -6.0518    2.5533   53.2952 C.ar    1  ZINC000185180600   -0.0500
     23 Cl23       -5.9046    2.6347   51.5674 Cl      1  ZINC000185180600   -0.0600
     24 C24        -5.1142    3.1780   54.0988 C.ar    1  ZINC000185180600   -0.0800
     25 C25        -5.2326    3.1197   55.4735 C.ar    1  ZINC000185180600   -0.1100
     26 C26        -5.9098    3.2528   58.3290 C.2     1  ZINC000185180600    0.0600
     27 C27        -6.2435    2.8326   59.5714 C.2     1  ZINC000185180600   -0.2500
     28 H28        -6.2896    1.3968   67.7455 H       1  ZINC000185180600    0.0500
     29 H29        -7.9875    1.2323   68.2538 H       1  ZINC000185180600    0.0600
     30 H30        -7.2722    0.0412   67.1413 H       1  ZINC000185180600    0.0500
     31 H31        -7.7426    2.9936   66.5257 H       1  ZINC000185180600    0.0700
     32 H32        -5.7647    2.1272   65.3676 H       1  ZINC000185180600    0.0500
     33 H33        -6.6671    0.6841   64.8464 H       1  ZINC000185180600    0.0500
     34 H34        -7.1022    2.2861   64.2041 H       1  ZINC000185180600    0.0500
     35 H35        -9.1124    0.4643   65.5045 H       1  ZINC000185180600    0.0700
     36 H36        -9.8278    1.6543   66.6181 H       1  ZINC000185180600    0.0800
     37 H37       -10.4769    3.8833   65.8322 H       1  ZINC000185180600    0.0600
     38 H38        -8.7722    4.1919   65.4231 H       1  ZINC000185180600    0.0700
     39 H39       -10.0391    4.4290   64.1954 H       1  ZINC000185180600    0.0600
     40 H40       -12.4379    3.2387   64.1246 H       1  ZINC000185180600    0.0600
     41 H41       -12.8635    1.5771   64.5997 H       1  ZINC000185180600    0.0700
     42 H42       -11.9468    2.6153   65.7177 H       1  ZINC000185180600    0.0800
     43 H43        -8.8108    0.4446   63.2697 H       1  ZINC000185180600    0.1500
     44 H44        -9.7286   -0.5395   62.1046 H       1  ZINC000185180600    0.1200
     45 H45        -6.8021    0.7893   61.3962 H       1  ZINC000185180600    0.1400
     46 H46        -7.7199   -0.1948   60.2311 H       1  ZINC000185180600    0.1000
     47 H47        -8.0498    1.2596   55.6869 H       1  ZINC000185180600    0.1400
     48 H48        -7.8377    1.3775   53.2378 H       1  ZINC000185180600    0.1500
     49 H49        -4.2912    3.7148   53.6504 H       1  ZINC000185180600    0.1400
     50 H50        -4.5005    3.6074   56.1002 H       1  ZINC000185180600    0.1500
     51 H51        -5.3515    4.1451   58.0869 H       1  ZINC000185180600    0.1800
     52 H52        -5.9949    3.3286   60.4979 H       1  ZINC000185180600    0.1700
@<TRIPOS>BOND
     1     1     2    1
     2     1    28    1
     3     1    29    1
     4     1    30    1
     5     2     3    1
     6     2     4    1
     7     2    31    1
     8     3    32    1
     9     3    33    1
    10     3    34    1
    11     4     5    1
    12     4    35    1
    13     4    36    1
    14     5     6    1
    15     5     7    1
    16     5     8    1
    17     7    37    1
    18     7    38    1
    19     7    39    1
    20     8     9    1
    21     8    10   am
    22     9    40    1
    23     9    41    1
    24     9    42    1
    25    10    11    2
    26    10    12    1
    27    12    13    1
    28    12    43    1
    29    12    44    1
    30    13    14    2
    31    13    15    1
    32    15    16    1
    33    15    45    1
    34    15    46    1
    35    16    27    1
    36    16    17    2
    37    17    18    1
    38    18    19    1
    39    18    26    1
    40    19    25   ar
    41    19    20   ar
    42    20    21   ar
    43    20    47    1
    44    21    22   ar
    45    21    48    1
    46    22    23    1
    47    22    24   ar
    48    24    25   ar
    49    24    49    1
    50    25    50    1
    51    26    27    2
    52    26    51    1
    53    27    52    1
@<TRIPOS>SUBSTRUCTURE
     1 ZINC000185180600        1 TEMP              0 ****  ****    0 ROOT


##########                                Name:    ZINC001296589646
##########                DOCK_Rotatable_Bonds:                   8
##########                         Heavy_Atoms:                  29
##########                    Molecular_Weight:             398.548
##########                DOCK_Rotatable_Bonds:                   8
##########                       Formal_Charge:          -0.0200008
##########                     HBond_Acceptors:                   6
##########                        HBond_Donors:                   0
##########                         Heavy_Atoms:                  29
##########                          Grid_Score:          -27.755072
##########                     Grid_vdw_energy:          -28.333746
##########                      Grid_es_energy:            0.578674
##########           Internal_energy_repulsive:           30.862360

@<TRIPOS>MOLECULE
ZINC001296589646
 63 66 1 0 0
SMALL
USER_CHARGES


@<TRIPOS>ATOM
      1 C1         -9.2657    4.4085   51.8592 C.3     1  ZINC001296589646   -0.1500
      2 C2         -8.0768    3.9222   52.6906 C.3     1  ZINC001296589646    0.0500
      3 O3         -7.7264    2.5959   52.2902 O.3     1  ZINC001296589646   -0.3600
      4 C4         -6.5451    2.0925   52.9172 C.3     1  ZINC001296589646    0.1800
      5 C5         -6.5697    2.3650   54.3992 C.2     1  ZINC001296589646    0.1500
      6 N6         -5.7945    3.1887   55.0459 N.2     1  ZINC001296589646   -0.2600
      7 N7         -6.0854    3.1767   56.2977 N.2     1  ZINC001296589646   -0.3200
      8 C8         -7.0698    2.3378   56.5187 C.2     1  ZINC001296589646    0.3600
      9 N9         -7.6540    2.0574   57.7437 N.3     1  ZINC001296589646   -0.4300
     10 C10        -6.6668    1.4623   58.6805 C.3     1  ZINC001296589646    0.0300
     11 C11        -7.3041    1.7090   60.0709 C.3     1  ZINC001296589646   -0.1200
     12 C12        -7.9466    3.1063   59.9138 C.3     1  ZINC001296589646   -0.1000
     13 H13        -7.2829    3.8746   60.3104 H       1  ZINC001296589646    0.0800
     14 C14        -9.2984    3.1528   60.6288 C.3     1  ZINC001296589646   -0.1400
     15 C15        -8.1352    3.2940   58.3970 C.3     1  ZINC001296589646    0.0500
     16 N16        -7.4137    1.7981   55.3135 N.pl3   1  ZINC001296589646   -0.4600
     17 C17        -8.4628    0.8088   55.0544 C.3     1  ZINC001296589646    0.1000
     18 C18        -9.8106    1.5194   54.9151 C.3     1  ZINC001296589646   -0.1300
     19 C19       -10.9188    0.4801   54.7352 C.3     1  ZINC001296589646   -0.0500
     20 H20       -11.8904    0.9659   54.8238 H       1  ZINC001296589646    0.0800
     21 C21       -10.7946   -0.1639   53.3530 C.3     1  ZINC001296589646   -0.1500
     22 C22       -10.7893   -0.5812   55.7974 C.ar    1  ZINC001296589646   -0.0800
     23 C23       -10.7993   -0.2267   57.1335 C.ar    1  ZINC001296589646   -0.1100
     24 C24       -10.6804   -1.2002   58.1077 C.ar    1  ZINC001296589646   -0.1200
     25 C25       -10.5520   -2.5281   57.7459 C.ar    1  ZINC001296589646   -0.1200
     26 C26       -10.5429   -2.8827   56.4099 C.ar    1  ZINC001296589646   -0.1200
     27 C27       -10.6661   -1.9096   55.4357 C.ar    1  ZINC001296589646   -0.1200
     28 C28        -5.2721    2.6936   52.2613 C.3     1  ZINC001296589646   -0.1400
     29 C29        -5.0871    1.7425   51.0522 C.3     1  ZINC001296589646    0.0600
     30 O30        -5.4768    0.4458   51.5320 O.3     1  ZINC001296589646   -0.3700
     31 C31        -6.3756    0.5835   52.6387 C.3     1  ZINC001296589646    0.0400
     32 H32        -8.9684    4.4912   50.8138 H       1  ZINC001296589646    0.0600
     33 H33       -10.0866    3.6970   51.9484 H       1  ZINC001296589646    0.0700
     34 H34        -9.5889    5.3838   52.2233 H       1  ZINC001296589646    0.0700
     35 H35        -7.2269    4.5860   52.5321 H       1  ZINC001296589646    0.0500
     36 H36        -8.3469    3.9236   53.7465 H       1  ZINC001296589646    0.0600
     37 H37        -6.5538    0.3945   58.4930 H       1  ZINC001296589646    0.0900
     38 H38        -5.7063    1.9715   58.6017 H       1  ZINC001296589646    0.0600
     39 H39        -8.0635    0.9573   60.2860 H       1  ZINC001296589646    0.0800
     40 H40        -6.5404    1.7208   60.8487 H       1  ZINC001296589646    0.0800
     41 H41        -9.1527    2.9694   61.6934 H       1  ZINC001296589646    0.0600
     42 H42        -9.7505    4.1344   60.4878 H       1  ZINC001296589646    0.0600
     43 H43        -9.9549    2.3874   60.2149 H       1  ZINC001296589646    0.0600
     44 H44        -7.5507    4.1473   58.0529 H       1  ZINC001296589646    0.0800
     45 H45        -9.1902    3.4475   58.1701 H       1  ZINC001296589646    0.0900
     46 H46        -8.2374    0.2732   54.1323 H       1  ZINC001296589646    0.1100
     47 H47        -8.5086    0.1022   55.8832 H       1  ZINC001296589646    0.1000
     48 H48       -10.0058    2.1073   55.8121 H       1  ZINC001296589646    0.0800
     49 H49        -9.7858    2.1783   54.0471 H       1  ZINC001296589646    0.0700
     50 H50       -11.5841   -0.9045   53.2249 H       1  ZINC001296589646    0.0600
     51 H51       -10.8883    0.6037   52.5849 H       1  ZINC001296589646    0.0600
     52 H52        -9.8229   -0.6498   53.2645 H       1  ZINC001296589646    0.0600
     53 H53       -10.8996    0.8109   57.4162 H       1  ZINC001296589646    0.1200
     54 H54       -10.6876   -0.9231   59.1516 H       1  ZINC001296589646    0.1200
     55 H55       -10.4585   -3.2885   58.5071 H       1  ZINC001296589646    0.1200
     56 H56       -10.4423   -3.9201   56.1272 H       1  ZINC001296589646    0.1200
     57 H57       -10.6590   -2.1867   54.3918 H       1  ZINC001296589646    0.1200
     58 H58        -5.4462    3.7181   51.9322 H       1  ZINC001296589646    0.1000
     59 H59        -4.4190    2.6400   52.9376 H       1  ZINC001296589646    0.1000
     60 H60        -5.7301    2.0496   50.2274 H       1  ZINC001296589646    0.0700
     61 H61        -4.0441    1.7311   50.7360 H       1  ZINC001296589646    0.0900
     62 H62        -5.9592    0.0899   53.5168 H       1  ZINC001296589646    0.1000
     63 H63        -7.3407    0.1431   52.3883 H       1  ZINC001296589646    0.0800
@<TRIPOS>BOND
     1     1     2    1
     2     1    32    1
     3     1    33    1
     4     1    34    1
     5     2     3    1
     6     2    35    1
     7     2    36    1
     8     3     4    1
     9     4    31    1
    10     4     5    1
    11     4    28    1
    12     5    16    1
    13     5     6    2
    14     6     7    1
    15     7     8    2
    16     8     9    1
    17     8    16    1
    18     9    15    1
    19     9    10    1
    20    10    11    1
    21    10    37    1
    22    10    38    1
    23    11    12    1
    24    11    39    1
    25    11    40    1
    26    12    13    1
    27    12    14    1
    28    12    15    1
    29    14    41    1
    30    14    42    1
    31    14    43    1
    32    15    44    1
    33    15    45    1
    34    16    17    1
    35    17    18    1
    36    17    46    1
    37    17    47    1
    38    18    19    1
    39    18    48    1
    40    18    49    1
    41    19    20    1
    42    19    21    1
    43    19    22    1
    44    21    50    1
    45    21    51    1
    46    21    52    1
    47    22    27   ar
    48    22    23   ar
    49    23    24   ar
    50    23    53    1
    51    24    25   ar
    52    24    54    1
    53    25    26   ar
    54    25    55    1
    55    26    27   ar
    56    26    56    1
    57    27    57    1
    58    28    29    1
    59    28    58    1
    60    28    59    1
    61    29    30    1
    62    29    60    1
    63    29    61    1
    64    30    31    1
    65    31    62    1
    66    31    63    1
@<TRIPOS>SUBSTRUCTURE
     1 ZINC001296589646        1 TEMP              0 ****  ****    0 ROOT


##########                                Name:    ZINC001490207225
##########                DOCK_Rotatable_Bonds:                   7
##########                         Heavy_Atoms:                  24
##########                    Molecular_Weight:             334.378
##########                DOCK_Rotatable_Bonds:                   7
##########                       Formal_Charge:           -0.010001
##########                     HBond_Acceptors:                   9
##########                        HBond_Donors:                   3
##########                         Heavy_Atoms:                  24
##########                          Grid_Score:          -27.708368
##########                     Grid_vdw_energy:          -27.669987
##########                      Grid_es_energy:           -0.038381
##########           Internal_energy_repulsive:            9.776743

@<TRIPOS>MOLECULE
ZINC001490207225
 46 48 1 0 0
SMALL
USER_CHARGES


@<TRIPOS>ATOM
      1 C1         -7.9372    2.3865   63.1708 C.3     1  ZINC001490207225    0.0900
      2 N2         -7.8710    1.5046   62.0028 N.pl3   1  ZINC001490207225   -0.3600
      3 C3         -8.7054    1.5313   60.9513 C.2     1  ZINC001490207225    0.1300
      4 C4         -8.2992    0.5440   60.0762 C.2     1  ZINC001490207225   -0.3000
      5 C5         -8.9237    0.2094   58.7833 C.2     1  ZINC001490207225    0.6200
      6 O6         -8.3642    0.5020   57.7441 O.2     1  ZINC001490207225   -0.5400
      7 N7        -10.1146   -0.4209   58.7533 N.am    1  ZINC001490207225   -0.6200
      8 C8        -10.9199   -0.8357   59.9135 C.3     1  ZINC001490207225    0.1100
      9 C9        -11.6746   -2.1056   59.4867 C.3     1  ZINC001490207225   -0.1100
     10 H10       -11.2284   -3.0075   59.9059 H       1  ZINC001490207225    0.1000
     11 C11       -13.1621   -1.9617   59.8713 C.3     1  ZINC001490207225    0.1000
     12 N12       -13.9057   -2.4558   58.6895 N.am    1  ZINC001490207225   -0.6200
     13 C13       -15.0220   -3.2107   58.6714 C.2     1  ZINC001490207225    0.5300
     14 O14       -15.5330   -3.5628   59.7134 O.2     1  ZINC001490207225   -0.5300
     15 C15       -15.6355   -3.6172   57.3563 C.3     1  ZINC001490207225    0.1200
     16 N16       -16.7772   -2.7480   57.0606 N.am    1  ZINC001490207225   -0.7400
     17 C17       -16.6372   -1.7217   56.1983 C.2     1  ZINC001490207225    0.7100
     18 N18       -17.6879   -0.9231   55.9250 N.am    1  ZINC001490207225   -0.8600
     19 O19       -15.5631   -1.5163   55.6668 O.2     1  ZINC001490207225   -0.5900
     20 C20       -13.1441   -1.9319   57.5324 C.3     1  ZINC001490207225    0.1100
     21 C21       -11.6382   -2.1004   57.9363 C.3     1  ZINC001490207225   -0.0800
     22 C22       -11.0209   -3.3666   57.3391 C.3     1  ZINC001490207225   -0.1300
     23 C23       -10.8672   -0.8230   57.5538 C.3     1  ZINC001490207225    0.1000
     24 C24        -7.1727   -0.0855   60.6514 C.2     1  ZINC001490207225    0.0700
     25 N25        -6.9239    0.4962   61.7923 N.2     1  ZINC001490207225   -0.2900
     26 H26        -7.3406    3.2797   62.9859 H       1  ZINC001490207225    0.0800
     27 H27        -8.9733    2.6727   63.3517 H       1  ZINC001490207225    0.0900
     28 H28        -7.5471    1.8631   64.0437 H       1  ZINC001490207225    0.1000
     29 H29        -9.5410    2.2019   60.8152 H       1  ZINC001490207225    0.1900
     30 H30       -10.2702   -1.0538   60.7611 H       1  ZINC001490207225    0.0900
     31 H31       -11.6285   -0.0504   60.1771 H       1  ZINC001490207225    0.0800
     32 H32       -13.3891   -2.5721   60.7453 H       1  ZINC001490207225    0.0900
     33 H33       -13.4053   -0.9166   60.0634 H       1  ZINC001490207225    0.0900
     34 H34       -14.8925   -3.5232   56.5643 H       1  ZINC001490207225    0.1000
     35 H35       -15.9728   -4.6520   57.4172 H       1  ZINC001490207225    0.1000
     36 H36       -17.6338   -2.9111   57.4854 H       1  ZINC001490207225    0.4100
     37 H37       -17.5874   -0.1851   55.3035 H       1  ZINC001490207225    0.4000
     38 H38       -18.5444   -1.0862   56.3498 H       1  ZINC001490207225    0.4200
     39 H39       -13.3575   -2.5197   56.6397 H       1  ZINC001490207225    0.0900
     40 H40       -13.3844   -0.8822   57.3633 H       1  ZINC001490207225    0.0800
     41 H41       -11.0614   -3.3122   56.2512 H       1  ZINC001490207225    0.0700
     42 H42        -9.9828   -3.4511   57.6603 H       1  ZINC001490207225    0.0600
     43 H43       -11.5789   -4.2385   57.6802 H       1  ZINC001490207225    0.0600
     44 H44       -11.5659   -0.0306   57.2854 H       1  ZINC001490207225    0.0800
     45 H45       -10.1948   -1.0273   56.7205 H       1  ZINC001490207225    0.0900
     46 H46        -6.6130   -0.9023   60.2202 H       1  ZINC001490207225    0.2000
@<TRIPOS>BOND
     1     1     2    1
     2     1    26    1
     3     1    27    1
     4     1    28    1
     5     2    25    1
     6     2     3    1
     7     3     4    2
     8     3    29    1
     9     4     5    1
    10     4    24    1
    11     5     6    2
    12     5     7   am
    13     7    23    1
    14     7     8    1
    15     8     9    1
    16     8    30    1
    17     8    31    1
    18     9    10    1
    19     9    21    1
    20     9    11    1
    21    11    12    1
    22    11    32    1
    23    11    33    1
    24    12    13   am
    25    12    20    1
    26    13    14    2
    27    13    15    1
    28    15    16    1
    29    15    34    1
    30    15    35    1
    31    16    17   am
    32    16    36    1
    33    17    18   am
    34    17    19    2
    35    18    37    1
    36    18    38    1
    37    20    21    1
    38    20    39    1
    39    20    40    1
    40    21    22    1
    41    21    23    1
    42    22    41    1
    43    22    42    1
    44    22    43    1
    45    23    44    1
    46    23    45    1
    47    24    25    2
    48    24    46    1
@<TRIPOS>SUBSTRUCTURE
     1 ZINC001490207225        1 TEMP              0 ****  ****    0 ROOT


##########                                Name:    ZINC000291574087
##########                DOCK_Rotatable_Bonds:                   8
##########                         Heavy_Atoms:                  23
##########                    Molecular_Weight:             387.249
##########                DOCK_Rotatable_Bonds:                   8
##########                       Formal_Charge:          -0.0400007
##########                     HBond_Acceptors:                   6
##########                        HBond_Donors:                   2
##########                         Heavy_Atoms:                  23
##########                          Grid_Score:          -27.706497
##########                     Grid_vdw_energy:          -27.474987
##########                      Grid_es_energy:           -0.231510
##########           Internal_energy_repulsive:           22.829079

@<TRIPOS>MOLECULE
ZINC000291574087
 43 44 1 0 0
SMALL
USER_CHARGES


@<TRIPOS>ATOM
      1 C1         -3.4986    2.5138   51.9181 C.3     1  ZINC000291574087    0.0200
      2 O2         -4.7498    3.1598   51.6743 O.3     1  ZINC000291574087   -0.3700
      3 C3         -5.8052    2.7260   52.5347 C.3     1  ZINC000291574087    0.1400
      4 C4         -5.5268    3.2005   53.9623 C.3     1  ZINC000291574087   -0.1500
      5 C5         -5.8867    1.1984   52.5116 C.3     1  ZINC000291574087    0.0900
      6 N6         -7.1467    0.7674   53.1221 N.am    1  ZINC000291574087   -0.6900
      7 C7         -7.6797   -0.4269   52.7961 C.2     1  ZINC000291574087    0.5100
      8 O8         -7.1165   -1.1445   51.9958 O.2     1  ZINC000291574087   -0.5100
      9 C9         -8.9633   -0.8670   53.4198 C.2     1  ZINC000291574087    0.5100
     10 O10        -9.6519   -1.7005   52.8680 O.2     1  ZINC000291574087   -0.4900
     11 N11        -9.3569   -0.3389   54.5956 N.am    1  ZINC000291574087   -0.6400
     12 C12       -10.5589   -0.7510   55.1798 C.ar    1  ZINC000291574087    0.1300
     13 C13       -10.5587   -1.7586   56.1350 C.ar    1  ZINC000291574087   -0.1000
     14 C14       -11.7474   -2.1635   56.7109 C.ar    1  ZINC000291574087   -0.0400
     15 C15       -11.7469   -3.2571   57.7476 C.3     1  ZINC000291574087   -0.1300
     16 C16       -12.9382   -1.5664   56.3376 C.ar    1  ZINC000291574087   -0.0900
     17 Br17      -14.5621   -2.1238   57.1302 Br      1  ZINC000291574087   -0.0300
     18 C18       -12.9436   -0.5615   55.3859 C.ar    1  ZINC000291574087   -0.1000
     19 C19       -11.7571   -0.1482   54.8092 C.ar    1  ZINC000291574087    0.0700
     20 F20       -11.7621    0.8326   53.8801 F       1  ZINC000291574087   -0.1300
     21 C21        -7.1319    3.3150   52.0511 C.3     1  ZINC000291574087   -0.1900
     22 C22        -7.9785    4.0799   53.0703 C.3     1  ZINC000291574087   -0.1700
     23 C23        -7.2394    4.8388   51.9665 C.3     1  ZINC000291574087   -0.1600
     24 H24        -2.7502    2.8979   51.2248 H       1  ZINC000291574087    0.0900
     25 H25        -3.1809    2.7118   52.9418 H       1  ZINC000291574087    0.0400
     26 H26        -3.6102    1.4392   51.7735 H       1  ZINC000291574087    0.0500
     27 H27        -5.4687    4.2888   53.9787 H       1  ZINC000291574087    0.0700
     28 H28        -6.3317    2.8697   54.6185 H       1  ZINC000291574087    0.0800
     29 H29        -4.5816    2.7810   54.3068 H       1  ZINC000291574087    0.0700
     30 H30        -5.8439    0.8478   51.4804 H       1  ZINC000291574087    0.0900
     31 H31        -5.0501    0.7814   53.0722 H       1  ZINC000291574087    0.0800
     32 H32        -7.5975    1.3415   53.7609 H       1  ZINC000291574087    0.4200
     33 H33        -8.8066    0.3270   55.0368 H       1  ZINC000291574087    0.4300
     34 H34        -9.6299   -2.2257   56.4274 H       1  ZINC000291574087    0.1600
     35 H35       -11.6272   -2.8186   58.7383 H       1  ZINC000291574087    0.0800
     36 H36       -12.6906   -3.8009   57.7026 H       1  ZINC000291574087    0.0800
     37 H37       -10.9227   -3.9430   57.5518 H       1  ZINC000291574087    0.0800
     38 H38       -13.8749   -0.0976   55.0963 H       1  ZINC000291574087    0.1500
     39 H39        -7.6584    2.7306   51.2964 H       1  ZINC000291574087    0.1100
     40 H40        -9.0623    3.9988   52.9866 H       1  ZINC000291574087    0.1000
     41 H41        -7.5904    4.1635   54.0854 H       1  ZINC000291574087    0.1000
     42 H42        -6.3649    5.4218   52.2554 H       1  ZINC000291574087    0.1000
     43 H43        -7.8369    5.2570   51.1564 H       1  ZINC000291574087    0.1000
@<TRIPOS>BOND
     1     1     2    1
     2     1    24    1
     3     1    25    1
     4     1    26    1
     5     2     3    1
     6     3     4    1
     7     3     5    1
     8     3    21    1
     9     4    27    1
    10     4    28    1
    11     4    29    1
    12     5     6    1
    13     5    30    1
    14     5    31    1
    15     6     7   am
    16     6    32    1
    17     7     8    2
    18     7     9    1
    19     9    10    2
    20     9    11   am
    21    11    12    1
    22    11    33    1
    23    12    19   ar
    24    12    13   ar
    25    13    14   ar
    26    13    34    1
    27    14    15    1
    28    14    16   ar
    29    15    35    1
    30    15    36    1
    31    15    37    1
    32    16    17    1
    33    16    18   ar
    34    18    19   ar
    35    18    38    1
    36    19    20    1
    37    21    23    1
    38    21    22    1
    39    21    39    1
    40    22    23    1
    41    22    40    1
    42    22    41    1
    43    23    42    1
    44    23    43    1
@<TRIPOS>SUBSTRUCTURE
     1 ZINC000291574087        1 TEMP              0 ****  ****    0 ROOT


##########                                Name:    ZINC000011157684
##########                DOCK_Rotatable_Bonds:                   7
##########                         Heavy_Atoms:                  25
##########                    Molecular_Weight:             374.866
##########                DOCK_Rotatable_Bonds:                   7
##########                       Formal_Charge:           0.0400001
##########                     HBond_Acceptors:                   6
##########                        HBond_Donors:                   2
##########                         Heavy_Atoms:                  25
##########                          Grid_Score:          -27.705452
##########                     Grid_vdw_energy:          -27.336252
##########                      Grid_es_energy:           -0.369200
##########           Internal_energy_repulsive:            9.988271

@<TRIPOS>MOLECULE
ZINC000011157684
 41 43 1 0 0
SMALL
USER_CHARGES


@<TRIPOS>ATOM
      1 O1         -9.1397    2.7046   57.4172 O.2     1  ZINC000011157684   -0.5200
      2 C2         -8.0967    2.0939   57.5184 C.2     1  ZINC000011157684    0.5100
      3 C3         -6.9687    2.3647   56.5565 C.3     1  ZINC000011157684    0.1000
      4 N4         -7.4676    2.2776   55.1818 N.pl3   1  ZINC000011157684   -0.7300
      5 C5         -6.5688    2.1363   54.1191 C.ar    1  ZINC000011157684    0.2200
      6 C6         -5.4561    2.9618   54.0353 C.ar    1  ZINC000011157684   -0.1600
      7 C7         -4.5693    2.8203   52.9852 C.ar    1  ZINC000011157684   -0.0900
      8 C8         -4.7898    1.8565   52.0163 C.ar    1  ZINC000011157684    0.0500
      9 F9         -3.9215    1.7207   50.9902 F       1  ZINC000011157684   -0.1400
     10 C10        -5.8989    1.0311   52.0972 C.ar    1  ZINC000011157684   -0.0900
     11 C11        -6.7857    1.1652   53.1484 C.ar    1  ZINC000011157684   -0.0900
     12 Cl12       -8.1759    0.1305   53.2499 Cl      1  ZINC000011157684   -0.0500
     13 N13        -7.9445    1.1772   58.4946 N.am    1  ZINC000011157684   -0.7200
     14 C14        -9.0411    0.9140   59.4296 C.3     1  ZINC000011157684    0.2600
     15 H15        -9.7504    1.7412   59.4001 H       1  ZINC000011157684    0.1200
     16 C16        -8.4892    0.7752   60.8251 C.2     1  ZINC000011157684   -0.1900
     17 C17        -7.3307    0.1937   61.1394 C.2     1  ZINC000011157684   -0.1200
     18 C18        -7.0305    0.1845   62.4908 C.2     1  ZINC000011157684   -0.1300
     19 C19        -7.9452    0.7585   63.2737 C.2     1  ZINC000011157684   -0.2100
     20 S20        -9.2706    1.3622   62.2874 S.3     1  ZINC000011157684    0.1100
     21 C21        -9.7408   -0.3617   59.0370 C.ar    1  ZINC000011157684   -0.0900
     22 C22        -9.5437   -0.8989   57.7786 C.ar    1  ZINC000011157684   -0.1100
     23 C23       -10.1855   -2.0691   57.4185 C.ar    1  ZINC000011157684   -0.1100
     24 C24       -11.0238   -2.7023   58.3168 C.ar    1  ZINC000011157684   -0.1100
     25 C25       -11.2201   -2.1656   59.5755 C.ar    1  ZINC000011157684   -0.1100
     26 C26       -10.5751   -0.9977   59.9372 C.ar    1  ZINC000011157684   -0.1000
     27 H27        -6.5701    3.3633   56.7357 H       1  ZINC000011157684    0.1000
     28 H28        -6.1801    1.6268   56.7042 H       1  ZINC000011157684    0.1000
     29 H29        -8.4211    2.3179   55.0085 H       1  ZINC000011157684    0.4200
     30 H30        -5.2836    3.7144   54.7905 H       1  ZINC000011157684    0.1400
     31 H31        -3.7035    3.4625   52.9201 H       1  ZINC000011157684    0.1400
     32 H32        -6.0688    0.2796   51.3404 H       1  ZINC000011157684    0.1500
     33 H33        -7.1089    0.6917   58.5779 H       1  ZINC000011157684    0.4000
     34 H34        -6.6767   -0.2376   60.3961 H       1  ZINC000011157684    0.1400
     35 H35        -6.1244   -0.2546   62.8815 H       1  ZINC000011157684    0.1400
     36 H36        -7.8802    0.8431   64.3484 H       1  ZINC000011157684    0.1700
     37 H37        -8.8887   -0.4042   57.0768 H       1  ZINC000011157684    0.1200
     38 H38       -10.0321   -2.4884   56.4350 H       1  ZINC000011157684    0.1300
     39 H39       -11.5258   -3.6163   58.0351 H       1  ZINC000011157684    0.1300
     40 H40       -11.8754   -2.6601   60.2772 H       1  ZINC000011157684    0.1300
     41 H41       -10.7284   -0.5784   60.9206 H       1  ZINC000011157684    0.1300
@<TRIPOS>BOND
     1     1     2    2
     2     2     3    1
     3     2    13   am
     4     3     4    1
     5     3    27    1
     6     3    28    1
     7     4     5    1
     8     4    29    1
     9     5    11   ar
    10     5     6   ar
    11     6     7   ar
    12     6    30    1
    13     7     8   ar
    14     7    31    1
    15     8     9    1
    16     8    10   ar
    17    10    11   ar
    18    10    32    1
    19    11    12    1
    20    13    14    1
    21    13    33    1
    22    14    15    1
    23    14    16    1
    24    14    21    1
    25    16    20    1
    26    16    17    2
    27    17    18    1
    28    17    34    1
    29    18    19    2
    30    18    35    1
    31    19    20    1
    32    19    36    1
    33    21    26   ar
    34    21    22   ar
    35    22    23   ar
    36    22    37    1
    37    23    24   ar
    38    23    38    1
    39    24    25   ar
    40    24    39    1
    41    25    26   ar
    42    25    40    1
    43    26    41    1
@<TRIPOS>SUBSTRUCTURE
     1 ZINC000011157684        1 TEMP              0 ****  ****    0 ROOT


##########                                Name:    ZINC000496437542
##########                DOCK_Rotatable_Bonds:                   7
##########                         Heavy_Atoms:                  24
##########                    Molecular_Weight:             338.447
##########                DOCK_Rotatable_Bonds:                   7
##########                       Formal_Charge:           0.0400002
##########                     HBond_Acceptors:                   6
##########                        HBond_Donors:                   1
##########                         Heavy_Atoms:                  24
##########                          Grid_Score:          -27.697496
##########                     Grid_vdw_energy:          -26.610634
##########                      Grid_es_energy:           -1.086862
##########           Internal_energy_repulsive:           28.300257

@<TRIPOS>MOLECULE
ZINC000496437542
 54 55 1 0 0
SMALL
USER_CHARGES


@<TRIPOS>ATOM
      1 C1         -7.3889    0.2560   60.5799 C.3     1  ZINC000496437542   -0.1800
      2 C2         -8.0938    0.9124   59.3911 C.3     1  ZINC000496437542    0.1400
      3 C3         -9.3454    1.6437   59.8806 C.3     1  ZINC000496437542   -0.1800
      4 C4         -7.1464    1.9125   58.7254 C.3     1  ZINC000496437542   -0.1400
      5 O5         -8.4739   -0.1077   58.4303 O.3     1  ZINC000496437542   -0.3600
      6 C6         -9.5217   -0.8897   58.7513 C.2     1  ZINC000496437542    0.6600
      7 O7         -9.7419   -1.1631   59.9147 O.2     1  ZINC000496437542   -0.5600
      8 N8        -10.3265   -1.3693   57.7825 N.am    1  ZINC000496437542   -0.6000
      9 C9        -11.4776   -2.2258   58.1090 C.3     1  ZINC000496437542    0.0800
     10 C10       -12.7172   -1.6574   57.4089 C.3     1  ZINC000496437542    0.0500
     11 O11       -12.4327   -1.4790   56.0193 O.3     1  ZINC000496437542   -0.3700
     12 C12       -11.3881   -0.5403   55.7517 C.3     1  ZINC000496437542    0.0700
     13 H13       -11.6441    0.4242   56.1902 H       1  ZINC000496437542    0.0700
     14 C14       -11.2161   -0.3846   54.2394 C.3     1  ZINC000496437542    0.1300
     15 N15       -10.0009    0.3854   53.9628 N.am    1  ZINC000496437542   -0.7200
     16 C16        -8.8987   -0.2377   53.5010 C.2     1  ZINC000496437542    0.5600
     17 O17        -8.9133   -1.4391   53.3125 O.2     1  ZINC000496437542   -0.5400
     18 C18        -7.6779    0.5351   53.2249 C.2     1  ZINC000496437542   -0.1900
     19 C19        -6.8811    0.1724   52.2430 C.2     1  ZINC000496437542   -0.0600
     20 C20        -5.6218    0.9604   51.9504 C.3     1  ZINC000496437542   -0.1000
     21 C21        -6.0193    2.3026   51.3320 C.3     1  ZINC000496437542   -0.1100
     22 C22        -6.3227    3.3251   52.4118 C.3     1  ZINC000496437542   -0.1200
     23 C23        -7.5603    3.0045   53.2300 C.3     1  ZINC000496437542   -0.1200
     24 C24        -7.3472    1.7483   54.0683 C.3     1  ZINC000496437542   -0.0800
     25 C25       -10.0837   -1.0469   56.3674 C.3     1  ZINC000496437542    0.1000
     26 H26        -8.0639   -0.4565   61.0543 H       1  ZINC000496437542    0.0900
     27 H27        -6.4973   -0.2649   60.2312 H       1  ZINC000496437542    0.0600
     28 H28        -7.1036    1.0218   61.3012 H       1  ZINC000496437542    0.0700
     29 H29        -9.0601    2.4094   60.6019 H       1  ZINC000496437542    0.0700
     30 H30        -9.8475    2.1114   59.0337 H       1  ZINC000496437542    0.0600
     31 H31       -10.0203    0.9312   60.3549 H       1  ZINC000496437542    0.0900
     32 H32        -6.2547    1.3915   58.3766 H       1  ZINC000496437542    0.0700
     33 H33        -7.6485    2.3801   57.8785 H       1  ZINC000496437542    0.0700
     34 H34        -6.8611    2.6783   59.4467 H       1  ZINC000496437542    0.0800
     35 H35       -11.2910   -3.2410   57.7584 H       1  ZINC000496437542    0.0800
     36 H36       -11.6359   -2.2328   59.1875 H       1  ZINC000496437542    0.1000
     37 H37       -13.5504   -2.3509   57.5237 H       1  ZINC000496437542    0.1100
     38 H38       -12.9782   -0.6970   57.8534 H       1  ZINC000496437542    0.0600
     39 H39       -11.1346   -1.3696   53.7797 H       1  ZINC000496437542    0.0900
     40 H40       -12.0792    0.1383   53.8274 H       1  ZINC000496437542    0.0800
     41 H41        -9.9895    1.3438   54.1119 H       1  ZINC000496437542    0.4000
     42 H42        -7.1262   -0.6917   51.6430 H       1  ZINC000496437542    0.1300
     43 H43        -5.0740    1.1322   52.8770 H       1  ZINC000496437542    0.0800
     44 H44        -4.9971    0.4055   51.2504 H       1  ZINC000496437542    0.0800
     45 H45        -5.2009    2.6681   50.7118 H       1  ZINC000496437542    0.0700
     46 H46        -6.9043    2.1634   50.7111 H       1  ZINC000496437542    0.0700
     47 H47        -5.4670    3.3850   53.0844 H       1  ZINC000496437542    0.0600
     48 H48        -6.4597    4.2984   51.9407 H       1  ZINC000496437542    0.0600
     49 H49        -7.7812    3.8435   53.8900 H       1  ZINC000496437542    0.0700
     50 H50        -8.4036    2.8463   52.5578 H       1  ZINC000496437542    0.0600
     51 H51        -7.9998    1.7755   54.9410 H       1  ZINC000496437542    0.0700
     52 H52        -6.3064    1.6937   54.3877 H       1  ZINC000496437542    0.0800
     53 H53        -9.3178   -0.2751   56.2913 H       1  ZINC000496437542    0.1100
     54 H54        -9.7546   -1.9442   55.8434 H       1  ZINC000496437542    0.0900
@<TRIPOS>BOND
     1     1     2    1
     2     1    26    1
     3     1    27    1
     4     1    28    1
     5     2     3    1
     6     2     4    1
     7     2     5    1
     8     3    29    1
     9     3    30    1
    10     3    31    1
    11     4    32    1
    12     4    33    1
    13     4    34    1
    14     5     6    1
    15     6     7    2
    16     6     8   am
    17     8    25    1
    18     8     9    1
    19     9    10    1
    20     9    35    1
    21     9    36    1
    22    10    11    1
    23    10    37    1
    24    10    38    1
    25    11    12    1
    26    12    13    1
    27    12    14    1
    28    12    25    1
    29    14    15    1
    30    14    39    1
    31    14    40    1
    32    15    16   am
    33    15    41    1
    34    16    17    2
    35    16    18    1
    36    18    24    1
    37    18    19    2
    38    19    20    1
    39    19    42    1
    40    20    21    1
    41    20    43    1
    42    20    44    1
    43    21    22    1
    44    21    45    1
    45    21    46    1
    46    22    23    1
    47    22    47    1
    48    22    48    1
    49    23    24    1
    50    23    49    1
    51    23    50    1
    52    24    51    1
    53    24    52    1
    54    25    53    1
    55    25    54    1
@<TRIPOS>SUBSTRUCTURE
     1 ZINC000496437542        1 TEMP              0 ****  ****    0 ROOT


##########                                Name:    ZINC000074782190
##########                DOCK_Rotatable_Bonds:                   9
##########                         Heavy_Atoms:                  25
##########                    Molecular_Weight:             341.453
##########                DOCK_Rotatable_Bonds:                   9
##########                       Formal_Charge:          -0.0200006
##########                     HBond_Acceptors:                   5
##########                        HBond_Donors:                   1
##########                         Heavy_Atoms:                  25
##########                          Grid_Score:          -27.689049
##########                     Grid_vdw_energy:          -26.954126
##########                      Grid_es_energy:           -0.734923
##########           Internal_energy_repulsive:           27.699848

@<TRIPOS>MOLECULE
ZINC000074782190
 52 53 1 0 0
SMALL
USER_CHARGES


@<TRIPOS>ATOM
      1 C1         -4.2705    3.1682   52.4983 C.3     1  ZINC000074782190   -0.1100
      2 C2         -5.3517    2.1241   52.6071 C.ar    1  ZINC000074782190   -0.1200
      3 C3         -5.1702    0.8791   52.0372 C.ar    1  ZINC000074782190   -0.0800
      4 C4         -6.1622   -0.0793   52.1362 C.ar    1  ZINC000074782190   -0.1500
      5 C5         -7.3375    0.2059   52.8060 C.ar    1  ZINC000074782190   -0.0900
      6 C6         -7.5237    1.4495   53.3782 C.ar    1  ZINC000074782190   -0.2100
      7 C7         -6.5281    2.4108   53.2847 C.ar    1  ZINC000074782190    0.1300
      8 O8         -6.7089    3.6350   53.8467 O.3     1  ZINC000074782190   -0.3000
      9 C9         -7.2007    3.6668   55.1879 C.3     1  ZINC000074782190    0.0700
     10 H10        -8.2374    3.3303   55.2029 H       1  ZINC000074782190    0.0800
     11 C11        -7.1208    5.0965   55.7267 C.3     1  ZINC000074782190   -0.1800
     12 C12        -6.3523    2.7433   56.0643 C.3     1  ZINC000074782190    0.1400
     13 N13        -7.2273    1.9682   56.9473 N.am    1  ZINC000074782190   -0.7500
     14 C14        -6.7530    1.4881   58.1140 C.2     1  ZINC000074782190    0.7100
     15 O15        -5.5989    1.6984   58.4337 O.2     1  ZINC000074782190   -0.5900
     16 N16        -7.5580    0.7751   58.9263 N.am    1  ZINC000074782190   -0.6200
     17 C17        -7.0425    0.2532   60.1945 C.3     1  ZINC000074782190    0.1800
     18 C18        -7.3329    1.2376   61.2980 C.ar    1  ZINC000074782190   -0.1600
     19 C19        -7.3091    2.6007   61.0469 C.ar    1  ZINC000074782190   -0.0500
     20 C20        -7.5831    3.4694   62.0926 C.ar    1  ZINC000074782190   -0.1800
     21 C21        -7.8690    2.9510   63.3413 C.ar    1  ZINC000074782190    0.1000
     22 N22        -7.8828    1.6478   63.5436 N.ar    1  ZINC000074782190   -0.4900
     23 C23        -7.6323    0.7926   62.5720 C.ar    1  ZINC000074782190    0.1100
     24 C24        -8.9486    0.5217   58.5412 C.3     1  ZINC000074782190    0.1300
     25 C25        -9.3506   -0.8879   58.9800 C.3     1  ZINC000074782190   -0.1800
     26 C26        -9.8603    1.5463   59.2192 C.3     1  ZINC000074782190   -0.1800
     27 H27        -3.5905    3.0767   53.3452 H       1  ZINC000074782190    0.0700
     28 H28        -3.7170    3.0228   51.5705 H       1  ZINC000074782190    0.0600
     29 H29        -4.7218    4.1603   52.5003 H       1  ZINC000074782190    0.0700
     30 H30        -4.2529    0.6541   51.5135 H       1  ZINC000074782190    0.1300
     31 H31        -6.0186   -1.0519   51.6893 H       1  ZINC000074782190    0.1200
     32 H32        -8.1109   -0.5442   52.8817 H       1  ZINC000074782190    0.1200
     33 H33        -8.4422    1.6719   53.9010 H       1  ZINC000074782190    0.1300
     34 H34        -6.0841    5.4329   55.7118 H       1  ZINC000074782190    0.0700
     35 H35        -7.7253    5.7544   55.1024 H       1  ZINC000074782190    0.0700
     36 H36        -7.4960    5.1208   56.7498 H       1  ZINC000074782190    0.0800
     37 H37        -5.7818    2.0641   55.4307 H       1  ZINC000074782190    0.0800
     38 H38        -5.6670    3.3412   56.6653 H       1  ZINC000074782190    0.0900
     39 H39        -8.1480    1.8005   56.6924 H       1  ZINC000074782190    0.4100
     40 H40        -7.5255   -0.6976   60.4193 H       1  ZINC000074782190    0.0900
     41 H41        -5.9656    0.1039   60.1151 H       1  ZINC000074782190    0.1000
     42 H42        -7.0820    2.9773   60.0605 H       1  ZINC000074782190    0.1400
     43 H43        -7.5729    4.5374   61.9331 H       1  ZINC000074782190    0.1300
     44 H44        -8.0831    3.6208   64.1609 H       1  ZINC000074782190    0.1600
     45 H45        -7.6528   -0.2679   62.7758 H       1  ZINC000074782190    0.1500
     46 H46        -9.0472    0.6074   57.4591 H       1  ZINC000074782190    0.1000
     47 H47        -9.3389   -0.9468   60.0683 H       1  ZINC000074782190    0.0600
     48 H48       -10.3533   -1.1100   58.6148 H       1  ZINC000074782190    0.0700
     49 H49        -8.6458   -1.6110   58.5693 H       1  ZINC000074782190    0.0600
     50 H50        -9.6511    2.5389   58.8203 H       1  ZINC000074782190    0.0700
     51 H51       -10.9020    1.2894   59.0266 H       1  ZINC000074782190    0.0700
     52 H52        -9.6774    1.5406   60.2938 H       1  ZINC000074782190    0.0700
@<TRIPOS>BOND
     1     1     2    1
     2     1    27    1
     3     1    28    1
     4     1    29    1
     5     2     7   ar
     6     2     3   ar
     7     3     4   ar
     8     3    30    1
     9     4     5   ar
    10     4    31    1
    11     5     6   ar
    12     5    32    1
    13     6     7   ar
    14     6    33    1
    15     7     8    1
    16     8     9    1
    17     9    10    1
    18     9    11    1
    19     9    12    1
    20    11    34    1
    21    11    35    1
    22    11    36    1
    23    12    13    1
    24    12    37    1
    25    12    38    1
    26    13    14   am
    27    13    39    1
    28    14    15    2
    29    14    16   am
    30    16    17    1
    31    16    24    1
    32    17    18    1
    33    17    40    1
    34    17    41    1
    35    18    23   ar
    36    18    19   ar
    37    19    20   ar
    38    19    42    1
    39    20    21   ar
    40    20    43    1
    41    21    22   ar
    42    21    44    1
    43    22    23   ar
    44    23    45    1
    45    24    25    1
    46    24    26    1
    47    24    46    1
    48    25    47    1
    49    25    48    1
    50    25    49    1
    51    26    50    1
    52    26    51    1
    53    26    52    1
@<TRIPOS>SUBSTRUCTURE
     1 ZINC000074782190        1 TEMP              0 ****  ****    0 ROOT


##########                                Name:    ZINC000484424341
##########                DOCK_Rotatable_Bonds:                   7
##########                         Heavy_Atoms:                  26
##########                    Molecular_Weight:             359.425
##########                DOCK_Rotatable_Bonds:                   7
##########                       Formal_Charge:          -0.0100009
##########                     HBond_Acceptors:                   7
##########                        HBond_Donors:                   1
##########                         Heavy_Atoms:                  26
##########                          Grid_Score:          -27.673674
##########                     Grid_vdw_energy:          -28.044432
##########                      Grid_es_energy:            0.370758
##########           Internal_energy_repulsive:           19.344843

@<TRIPOS>MOLECULE
ZINC000484424341
 51 53 1 0 0
SMALL
USER_CHARGES


@<TRIPOS>ATOM
      1 C1         -8.3370    3.4542   51.9931 C.3     1  ZINC000484424341    0.0300
      2 O2         -7.6350    2.3291   52.5256 O.3     1  ZINC000484424341   -0.3800
      3 C3         -6.2939    2.2019   52.0486 C.3     1  ZINC000484424341    0.1300
      4 H4         -6.2120    2.6675   51.0666 H       1  ZINC000484424341    0.0700
      5 C5         -5.9289    0.7199   51.9426 C.3     1  ZINC000484424341   -0.1700
      6 C6         -5.3528    2.8837   53.0080 C.ar    1  ZINC000484424341   -0.0700
      7 C7         -4.0764    3.2235   52.5992 C.ar    1  ZINC000484424341   -0.1000
      8 C8         -3.2094    3.8494   53.4764 C.ar    1  ZINC000484424341   -0.1000
      9 C9         -3.6161    4.1372   54.7640 C.ar    1  ZINC000484424341   -0.1100
     10 C10        -4.8982    3.7973   55.1783 C.ar    1  ZINC000484424341    0.1400
     11 N11        -5.3133    4.0874   56.4805 N.am    1  ZINC000484424341   -0.6400
     12 C12        -5.5769    3.0856   57.3427 C.2     1  ZINC000484424341    0.5100
     13 O13        -5.4537    1.9314   56.9881 O.2     1  ZINC000484424341   -0.4900
     14 C14        -6.0206    3.3958   58.7346 C.2     1  ZINC000484424341    0.5200
     15 O15        -5.7121    4.4510   59.2490 O.2     1  ZINC000484424341   -0.5200
     16 N16        -6.7637    2.5041   59.4196 N.am    1  ZINC000484424341   -0.5800
     17 C17        -7.2066    1.1943   58.9198 C.3     1  ZINC000484424341    0.1100
     18 C18        -8.0025    0.5160   60.0548 C.3     1  ZINC000484424341   -0.1500
     19 C19        -7.4832    1.2409   61.3246 C.3     1  ZINC000484424341    0.1500
     20 H20        -6.5445    0.8050   61.6669 H       1  ZINC000484424341    0.1100
     21 N21        -8.4885    1.2188   62.3900 N.am    1  ZINC000484424341   -0.6100
     22 C22        -8.2768    0.6270   63.7162 C.3     1  ZINC000484424341    0.1000
     23 C23        -9.3934    1.2098   64.6105 C.3     1  ZINC000484424341   -0.1300
     24 C24       -10.4867    1.5471   63.5704 C.3     1  ZINC000484424341   -0.1600
     25 C25        -9.7213    1.7432   62.2803 C.2     1  ZINC000484424341    0.5200
     26 O26       -10.1589    2.2877   61.2889 O.2     1  ZINC000484424341   -0.5200
     27 C27        -7.2616    2.6778   60.7963 C.3     1  ZINC000484424341    0.0900
     28 C28        -5.7682    3.1738   54.2929 C.ar    1  ZINC000484424341   -0.1300
     29 H29        -8.3883    3.3698   50.9076 H       1  ZINC000484424341    0.0400
     30 H30        -9.3464    3.4801   52.4037 H       1  ZINC000484424341    0.0900
     31 H31        -7.8117    4.3706   52.2620 H       1  ZINC000484424341    0.0400
     32 H32        -6.0108    0.2543   52.9247 H       1  ZINC000484424341    0.0700
     33 H33        -6.6096    0.2267   51.2487 H       1  ZINC000484424341    0.0600
     34 H34        -4.9059    0.6228   51.5788 H       1  ZINC000484424341    0.0700
     35 H35        -3.7555    2.9992   51.5926 H       1  ZINC000484424341    0.1300
     36 H36        -2.2129    4.1130   53.1538 H       1  ZINC000484424341    0.1300
     37 H37        -2.9386    4.6257   55.4486 H       1  ZINC000484424341    0.1300
     38 H38        -5.4117    5.0099   56.7639 H       1  ZINC000484424341    0.4200
     39 H39        -7.8458    1.3274   58.0471 H       1  ZINC000484424341    0.0800
     40 H40        -6.3412    0.5852   58.6586 H       1  ZINC000484424341    0.0800
     41 H41        -9.0724    0.6805   59.9273 H       1  ZINC000484424341    0.0900
     42 H42        -7.7776   -0.5496   60.1000 H       1  ZINC000484424341    0.0900
     43 H43        -8.3638   -0.4582   63.6632 H       1  ZINC000484424341    0.0800
     44 H44        -7.2977    0.9091   64.1033 H       1  ZINC000484424341    0.0800
     45 H45        -9.7496    0.4666   65.3239 H       1  ZINC000484424341    0.0900
     46 H46        -9.0526    2.1090   65.1238 H       1  ZINC000484424341    0.0800
     47 H47       -11.1928    0.7218   63.4779 H       1  ZINC000484424341    0.1100
     48 H48       -11.0055    2.4651   63.8463 H       1  ZINC000484424341    0.1000
     49 H49        -6.5236    3.1972   61.4075 H       1  ZINC000484424341    0.0900
     50 H50        -8.2026    3.2279   60.7871 H       1  ZINC000484424341    0.0900
     51 H51        -6.7655    2.9085   54.6115 H       1  ZINC000484424341    0.1300
@<TRIPOS>BOND
     1     1     2    1
     2     1    29    1
     3     1    30    1
     4     1    31    1
     5     2     3    1
     6     3     4    1
     7     3     5    1
     8     3     6    1
     9     5    32    1
    10     5    33    1
    11     5    34    1
    12     6    28   ar
    13     6     7   ar
    14     7     8   ar
    15     7    35    1
    16     8     9   ar
    17     8    36    1
    18     9    10   ar
    19     9    37    1
    20    10    11    1
    21    10    28   ar
    22    11    12   am
    23    11    38    1
    24    12    13    2
    25    12    14    1
    26    14    15    2
    27    14    16   am
    28    16    27    1
    29    16    17    1
    30    17    18    1
    31    17    39    1
    32    17    40    1
    33    18    19    1
    34    18    41    1
    35    18    42    1
    36    19    20    1
    37    19    21    1
    38    19    27    1
    39    21    25   am
    40    21    22    1
    41    22    23    1
    42    22    43    1
    43    22    44    1
    44    23    24    1
    45    23    45    1
    46    23    46    1
    47    24    25    1
    48    24    47    1
    49    24    48    1
    50    25    26    2
    51    27    49    1
    52    27    50    1
    53    28    51    1
@<TRIPOS>SUBSTRUCTURE
     1 ZINC000484424341        1 TEMP              0 ****  ****    0 ROOT


##########                                Name:    ZINC000450219577
##########                DOCK_Rotatable_Bonds:                   8
##########                         Heavy_Atoms:                  26
##########                    Molecular_Weight:             353.421
##########                DOCK_Rotatable_Bonds:                   8
##########                       Formal_Charge:          -0.0199997
##########                     HBond_Acceptors:                   6
##########                        HBond_Donors:                   1
##########                         Heavy_Atoms:                  26
##########                          Grid_Score:          -27.664867
##########                     Grid_vdw_energy:          -28.578947
##########                      Grid_es_energy:            0.914080
##########           Internal_energy_repulsive:           38.206039

@<TRIPOS>MOLECULE
ZINC000450219577
 49 51 1 0 0
SMALL
USER_CHARGES


@<TRIPOS>ATOM
      1 C1          3.7580    4.9108   46.8857 C.3     1  ZINC000450219577   -0.1800
      2 C2          3.3018    5.1626   48.3243 C.3     1  ZINC000450219577    0.1200
      3 C3          4.4158    5.8734   49.0955 C.3     1  ZINC000450219577   -0.1800
      4 C4          2.0480    6.0393   48.3156 C.3     1  ZINC000450219577   -0.1400
      5 O5          3.0018    3.8950   48.9658 O.3     1  ZINC000450219577   -0.3400
      6 C6          2.5861    3.9408   50.2412 C.2     1  ZINC000450219577    0.4700
      7 O7          2.4614    5.0058   50.7981 O.2     1  ZINC000450219577   -0.5000
      8 C8          2.2750    2.6639   50.9786 C.3     1  ZINC000450219577    0.2000
      9 H9          2.5395    2.7777   52.0299 H       1  ZINC000450219577    0.1400
     10 N10         0.8444    2.3701   50.8642 N.am    1  ZINC000450219577   -0.7100
     11 C11        -0.0299    2.9326   51.7219 C.2     1  ZINC000450219577    0.5800
     12 O12         0.3685    3.6850   52.5895 O.2     1  ZINC000450219577   -0.5200
     13 C13        -1.4733    2.6347   51.6076 C.ar    1  ZINC000450219577   -0.2500
     14 C14        -1.9455    1.7137   50.6656 C.ar    1  ZINC000450219577    0.1900
     15 N15        -3.2439    1.4773   50.5981 N.ar    1  ZINC000450219577   -0.5100
     16 C16        -4.0886    2.0942   51.4010 C.ar    1  ZINC000450219577    0.3800
     17 C17        -5.5600    1.7901   51.2848 C.3     1  ZINC000450219577   -0.1100
     18 C18        -6.2305    1.0828   52.4644 C.3     1  ZINC000450219577   -0.1500
     19 C19        -6.5152    2.5622   52.1973 C.3     1  ZINC000450219577   -0.1500
     20 N20        -3.6868    2.9684   52.3028 N.ar    1  ZINC000450219577   -0.5200
     21 C21        -2.4057    3.2612   52.4423 C.ar    1  ZINC000450219577    0.2200
     22 C22         3.0697    1.5318   50.3803 C.ar    1  ZINC000450219577   -0.1100
     23 C23         2.6984    0.9951   49.1617 C.ar    1  ZINC000450219577   -0.1000
     24 C24         3.4274   -0.0432   48.6129 C.ar    1  ZINC000450219577   -0.1200
     25 C25         4.5279   -0.5446   49.2824 C.ar    1  ZINC000450219577   -0.1100
     26 C26         4.8998   -0.0073   50.5005 C.ar    1  ZINC000450219577   -0.1200
     27 C27         4.1734    1.0340   51.0474 C.ar    1  ZINC000450219577   -0.0800
     28 H28         4.6513    4.2862   46.8919 H       1  ZINC000450219577    0.0800
     29 H29         2.9644    4.4044   46.3363 H       1  ZINC000450219577    0.0600
     30 H30         3.9832    5.8623   46.4042 H       1  ZINC000450219577    0.0700
     31 H31         4.6411    6.8249   48.6140 H       1  ZINC000450219577    0.0700
     32 H32         4.0908    6.0529   50.1204 H       1  ZINC000450219577    0.0600
     33 H33         5.3091    5.2488   49.1017 H       1  ZINC000450219577    0.0800
     34 H34         1.2543    5.5329   47.7662 H       1  ZINC000450219577    0.0700
     35 H35         1.7230    6.2187   49.3405 H       1  ZINC000450219577    0.0700
     36 H36         2.2732    6.9908   47.8340 H       1  ZINC000450219577    0.0800
     37 H37         0.5262    1.7706   50.1711 H       1  ZINC000450219577    0.4100
     38 H38        -1.2599    1.2048   50.0043 H       1  ZINC000450219577    0.1700
     39 H39        -5.9112    1.5420   50.2832 H       1  ZINC000450219577    0.1300
     40 H40        -7.0229    0.3691   52.2387 H       1  ZINC000450219577    0.1000
     41 H41        -5.6073    0.8375   53.3243 H       1  ZINC000450219577    0.1100
     42 H42        -6.0794    3.2901   52.8816 H       1  ZINC000450219577    0.1000
     43 H43        -7.4949    2.8218   51.7960 H       1  ZINC000450219577    0.1100
     44 H44        -2.0842    3.9784   53.1831 H       1  ZINC000450219577    0.1800
     45 H45         1.8386    1.3868   48.6386 H       1  ZINC000450219577    0.1200
     46 H46         3.1369   -0.4630   47.6612 H       1  ZINC000450219577    0.1200
     47 H47         5.0971   -1.3563   48.8539 H       1  ZINC000450219577    0.1300
     48 H48         5.7595   -0.3992   51.0238 H       1  ZINC000450219577    0.1300
     49 H49         4.4638    1.4537   51.9991 H       1  ZINC000450219577    0.1300
@<TRIPOS>BOND
     1     1     2    1
     2     1    28    1
     3     1    29    1
     4     1    30    1
     5     2     3    1
     6     2     4    1
     7     2     5    1
     8     3    31    1
     9     3    32    1
    10     3    33    1
    11     4    34    1
    12     4    35    1
    13     4    36    1
    14     5     6    1
    15     6     7    2
    16     6     8    1
    17     8     9    1
    18     8    10    1
    19     8    22    1
    20    10    11   am
    21    10    37    1
    22    11    12    2
    23    11    13    1
    24    13    21   ar
    25    13    14   ar
    26    14    15   ar
    27    14    38    1
    28    15    16   ar
    29    16    17    1
    30    16    20   ar
    31    17    19    1
    32    17    18    1
    33    17    39    1
    34    18    19    1
    35    18    40    1
    36    18    41    1
    37    19    42    1
    38    19    43    1
    39    20    21   ar
    40    21    44    1
    41    22    27   ar
    42    22    23   ar
    43    23    24   ar
    44    23    45    1
    45    24    25   ar
    46    24    46    1
    47    25    26   ar
    48    25    47    1
    49    26    27   ar
    50    26    48    1
    51    27    49    1
@<TRIPOS>SUBSTRUCTURE
     1 ZINC000450219577        1 TEMP              0 ****  ****    0 ROOT


##########                                Name:    ZINC001064463188
##########                DOCK_Rotatable_Bonds:                   6
##########                         Heavy_Atoms:                  25
##########                    Molecular_Weight:             342.441
##########                DOCK_Rotatable_Bonds:                   6
##########                       Formal_Charge:          -0.0100004
##########                     HBond_Acceptors:                   6
##########                        HBond_Donors:                   0
##########                         Heavy_Atoms:                  25
##########                          Grid_Score:          -27.654415
##########                     Grid_vdw_energy:          -27.872286
##########                      Grid_es_energy:            0.217870
##########           Internal_energy_repulsive:           12.349468

@<TRIPOS>MOLECULE
ZINC001064463188
 51 54 1 0 0
SMALL
USER_CHARGES


@<TRIPOS>ATOM
      1 C1         -5.9821    1.6629   50.8343 C.3     1  ZINC001064463188    0.0400
      2 O2         -5.2319    1.8798   52.0310 O.3     1  ZINC001064463188   -0.3000
      3 C3         -5.9332    1.9912   53.1852 C.ar    1  ZINC001064463188    0.3900
      4 C4         -5.4768    2.8149   54.2129 C.ar    1  ZINC001064463188   -0.2800
      5 C5         -6.2241    2.8983   55.3728 C.ar    1  ZINC001064463188    0.2000
      6 N6         -7.3438    2.1984   55.4734 N.ar    1  ZINC001064463188   -0.5800
      7 C7         -7.7530    1.4235   54.4797 C.ar    1  ZINC001064463188    0.5300
      8 N8         -8.9290    0.7077   54.6221 N.3     1  ZINC001064463188   -0.4500
      9 C9        -10.0907    1.5914   54.5585 C.3     1  ZINC001064463188    0.0700
     10 C10       -11.0983    1.2190   55.6526 C.3     1  ZINC001064463188   -0.1200
     11 C11       -11.7225   -0.1423   55.4119 C.3     1  ZINC001064463188    0.1400
     12 H12       -12.3870   -0.3974   56.2373 H       1  ZINC001064463188    0.0900
     13 C13       -12.4927   -0.1839   54.0905 C.3     1  ZINC001064463188   -0.1300
     14 C14       -11.4437   -0.6240   53.0542 C.3     1  ZINC001064463188   -0.1300
     15 C15       -10.2871   -1.2054   53.8746 C.3     1  ZINC001064463188    0.1200
     16 H16       -10.1193   -2.2438   53.5887 H       1  ZINC001064463188    0.0900
     17 C17        -9.0049   -0.3954   53.6282 C.3     1  ZINC001064463188    0.0600
     18 N18       -10.6146   -1.1385   55.3240 N.am    1  ZINC001064463188   -0.6000
     19 C19       -10.0335   -1.8268   56.3266 C.2     1  ZINC001064463188    0.5800
     20 O20        -9.1340   -2.6090   56.0856 O.2     1  ZINC001064463188   -0.5400
     21 C21       -10.4872   -1.6318   57.7122 C.2     1  ZINC001064463188   -0.2200
     22 C22       -11.4306   -2.4196   58.2201 C.2     1  ZINC001064463188    0.0000
     23 C23       -12.0349   -3.5121   57.3760 C.3     1  ZINC001064463188   -0.1300
     24 C24       -11.8954   -2.2199   59.6397 C.3     1  ZINC001064463188   -0.1200
     25 C25       -12.4905   -0.8581   60.0032 C.3     1  ZINC001064463188   -0.1900
     26 C26       -13.4005   -2.0817   59.8774 C.3     1  ZINC001064463188   -0.1600
     27 N27        -7.0675    1.3216   53.3507 N.ar    1  ZINC001064463188   -0.5900
     28 H28        -6.6692    2.4951   50.6804 H       1  ZINC001064463188    0.0600
     29 H29        -5.3010    1.5925   49.9861 H       1  ZINC001064463188    0.1000
     30 H30        -6.5485    0.7359   50.9235 H       1  ZINC001064463188    0.0600
     31 H31        -4.5597    3.3751   54.1055 H       1  ZINC001064463188    0.1500
     32 H32        -5.8982    3.5270   56.1882 H       1  ZINC001064463188    0.1800
     33 H33        -9.7682    2.6229   54.7002 H       1  ZINC001064463188    0.0800
     34 H34       -10.5653    1.4945   53.5821 H       1  ZINC001064463188    0.0600
     35 H35       -10.5882    1.2097   56.6158 H       1  ZINC001064463188    0.0800
     36 H36       -11.8872    1.9709   55.6786 H       1  ZINC001064463188    0.0800
     37 H37       -13.3035   -0.9104   54.1445 H       1  ZINC001064463188    0.0800
     38 H38       -12.8808    0.8044   53.8442 H       1  ZINC001064463188    0.0900
     39 H39       -11.8599   -1.3857   52.3948 H       1  ZINC001064463188    0.0800
     40 H40       -11.1022    0.2335   52.4743 H       1  ZINC001064463188    0.0800
     41 H41        -9.0322    0.0363   52.6278 H       1  ZINC001064463188    0.0700
     42 H42        -8.1370   -1.0480   53.7228 H       1  ZINC001064463188    0.0900
     43 H43       -10.0541   -0.8488   58.3171 H       1  ZINC001064463188    0.1200
     44 H44       -11.4584   -4.4287   57.5010 H       1  ZINC001064463188    0.0800
     45 H45       -13.0647   -3.6851   57.6885 H       1  ZINC001064463188    0.0800
     46 H46       -12.0186   -3.2126   56.3281 H       1  ZINC001064463188    0.0700
     47 H47       -11.3104   -2.7338   60.4025 H       1  ZINC001064463188    0.1400
     48 H48       -12.2970   -0.4757   61.0054 H       1  ZINC001064463188    0.1000
     49 H49       -12.5459   -0.1066   59.2157 H       1  ZINC001064463188    0.1000
     50 H50       -14.0545   -2.1351   59.0071 H       1  ZINC001064463188    0.0900
     51 H51       -13.8057   -2.5041   60.7969 H       1  ZINC001064463188    0.1000
@<TRIPOS>BOND
     1     1     2    1
     2     1    28    1
     3     1    29    1
     4     1    30    1
     5     2     3    1
     6     3    27   ar
     7     3     4   ar
     8     4     5   ar
     9     4    31    1
    10     5     6   ar
    11     5    32    1
    12     6     7   ar
    13     7     8    1
    14     7    27   ar
    15     8    17    1
    16     8     9    1
    17     9    10    1
    18     9    33    1
    19     9    34    1
    20    10    11    1
    21    10    35    1
    22    10    36    1
    23    11    12    1
    24    11    18    1
    25    11    13    1
    26    13    14    1
    27    13    37    1
    28    13    38    1
    29    14    15    1
    30    14    39    1
    31    14    40    1
    32    15    16    1
    33    15    17    1
    34    15    18    1
    35    17    41    1
    36    17    42    1
    37    18    19   am
    38    19    20    2
    39    19    21    1
    40    21    22    2
    41    21    43    1
    42    22    23    1
    43    22    24    1
    44    23    44    1
    45    23    45    1
    46    23    46    1
    47    24    26    1
    48    24    25    1
    49    24    47    1
    50    25    26    1
    51    25    48    1
    52    25    49    1
    53    26    50    1
    54    26    51    1
@<TRIPOS>SUBSTRUCTURE
     1 ZINC001064463188        1 TEMP              0 ****  ****    0 ROOT


##########                                Name:    ZINC001284642199
##########                DOCK_Rotatable_Bonds:                   8
##########                         Heavy_Atoms:                  25
##########                    Molecular_Weight:             346.516
##########                DOCK_Rotatable_Bonds:                   8
##########                       Formal_Charge:         -3.8743e-07
##########                     HBond_Acceptors:                   5
##########                        HBond_Donors:                   2
##########                         Heavy_Atoms:                  25
##########                          Grid_Score:          -27.644348
##########                     Grid_vdw_energy:          -27.269320
##########                      Grid_es_energy:           -0.375028
##########           Internal_energy_repulsive:           18.270477

@<TRIPOS>MOLECULE
ZINC001284642199
 59 60 1 0 0
SMALL
USER_CHARGES


@<TRIPOS>ATOM
      1 C1        -11.2334    2.1574   65.7123 C.3     1  ZINC001284642199   -0.1100
      2 C2        -10.0693    1.6576   64.8961 C.ar    1  ZINC001284642199   -0.1900
      3 C3         -8.7663    1.9603   65.2586 C.ar    1  ZINC001284642199    0.1500
      4 N4         -7.7694    1.5036   64.5179 N.ar    1  ZINC001284642199   -0.4900
      5 C5         -8.0039    0.7700   63.4483 C.ar    1  ZINC001284642199    0.3100
      6 C6         -6.8398    0.2702   62.6321 C.3     1  ZINC001284642199    0.1300
      7 N7         -7.2756    0.0384   61.2486 N.3     1  ZINC001284642199   -0.6800
      8 C8         -7.4886    1.3096   60.5438 C.3     1  ZINC001284642199    0.0500
      9 C9         -7.9324    1.0280   59.1069 C.3     1  ZINC001284642199    0.1600
     10 H10        -7.4233    0.1378   58.7373 H       1  ZINC001284642199    0.1000
     11 N11        -9.3807    0.8102   59.0769 N.am    1  ZINC001284642199   -0.7200
     12 C12        -9.8798   -0.3333   58.5671 C.2     1  ZINC001284642199    0.5200
     13 O13        -9.1298   -1.1826   58.1346 O.2     1  ZINC001284642199   -0.5300
     14 C14       -11.3698   -0.5566   58.5346 C.3     1  ZINC001284642199   -0.1100
     15 H15       -11.8828    0.3890   58.7100 H       1  ZINC001284642199    0.0900
     16 C16       -11.7730   -1.1091   57.1660 C.3     1  ZINC001284642199   -0.1000
     17 C17       -13.2857   -1.3358   57.1329 C.3     1  ZINC001284642199   -0.1100
     18 C18       -13.6753   -2.3373   58.2221 C.3     1  ZINC001284642199   -0.0900
     19 H19       -13.1623   -3.2829   58.0466 H       1  ZINC001284642199    0.0700
     20 C20       -15.1880   -2.5639   58.1891 C.3     1  ZINC001284642199   -0.1500
     21 C21       -13.2721   -1.7847   59.5907 C.3     1  ZINC001284642199   -0.1100
     22 C22       -11.7594   -1.5580   59.6238 C.3     1  ZINC001284642199   -0.1100
     23 C23        -7.5779    2.2233   58.2201 C.3     1  ZINC001284642199   -0.0800
     24 C24        -8.0701    3.5124   58.8810 C.3     1  ZINC001284642199   -0.1400
     25 C25        -6.0603    2.2908   58.0378 C.3     1  ZINC001284642199   -0.1400
     26 C26        -8.2489    2.0620   56.8546 C.3     1  ZINC001284642199   -0.1300
     27 N27        -9.2295    0.4664   63.0706 N.ar    1  ZINC001284642199   -0.5100
     28 C28       -10.2759    0.8837   63.7650 C.ar    1  ZINC001284642199    0.1500
     29 H29       -11.5518    3.1289   65.3342 H       1  ZINC001284642199    0.0800
     30 H30       -12.0594    1.4502   65.6381 H       1  ZINC001284642199    0.0700
     31 H31       -10.9309    2.2548   66.7549 H       1  ZINC001284642199    0.0700
     32 H32        -8.5673    2.5612   66.1337 H       1  ZINC001284642199    0.1700
     33 H33        -6.4714   -0.6629   63.0582 H       1  ZINC001284642199    0.1000
     34 H34        -6.0431    1.0140   62.6424 H       1  ZINC001284642199    0.0600
     35 H35        -8.1066   -0.5334   61.2221 H       1  ZINC001284642199    0.3400
     36 H36        -6.5592    1.8788   60.5322 H       1  ZINC001284642199    0.0900
     37 H37        -8.2602    1.8843   61.0562 H       1  ZINC001284642199    0.0400
     38 H38        -9.9806    1.4889   59.4239 H       1  ZINC001284642199    0.3900
     39 H39       -11.2599   -2.0547   56.9904 H       1  ZINC001284642199    0.0700
     40 H40       -11.4954   -0.3958   56.3899 H       1  ZINC001284642199    0.0700
     41 H41       -13.5729   -1.7295   56.1579 H       1  ZINC001284642199    0.0700
     42 H42       -13.7988   -0.3903   57.3084 H       1  ZINC001284642199    0.0600
     43 H43       -15.4752   -2.9576   57.2141 H       1  ZINC001284642199    0.0500
     44 H44       -15.4656   -3.2773   58.9650 H       1  ZINC001284642199    0.0500
     45 H45       -15.7010   -1.6184   58.3646 H       1  ZINC001284642199    0.0500
     46 H46       -13.7851   -0.8391   59.7662 H       1  ZINC001284642199    0.0600
     47 H47       -13.5496   -2.4980   60.3667 H       1  ZINC001284642199    0.0700
     48 H48       -11.2464   -2.5036   59.4482 H       1  ZINC001284642199    0.0700
     49 H49       -11.4722   -1.1644   60.5987 H       1  ZINC001284642199    0.0600
     50 H50        -7.5921    3.6273   59.8539 H       1  ZINC001284642199    0.0600
     51 H51        -7.8177    4.3640   58.2493 H       1  ZINC001284642199    0.0600
     52 H52        -9.1513    3.4643   59.0109 H       1  ZINC001284642199    0.0500
     53 H53        -5.7096    1.3726   57.5669 H       1  ZINC001284642199    0.0600
     54 H54        -5.8078    3.1425   57.4061 H       1  ZINC001284642199    0.0600
     55 H55        -5.5823    2.4058   59.0107 H       1  ZINC001284642199    0.0600
     56 H56        -9.3300    2.0139   56.9844 H       1  ZINC001284642199    0.0500
     57 H57        -7.9963    2.9136   56.2228 H       1  ZINC001284642199    0.0500
     58 H58        -7.8982    1.1437   56.3837 H       1  ZINC001284642199    0.0600
     59 H59       -11.2776    0.6282   63.4521 H       1  ZINC001284642199    0.1700
@<TRIPOS>BOND
     1     1     2    1
     2     1    29    1
     3     1    30    1
     4     1    31    1
     5     2    28   ar
     6     2     3   ar
     7     3     4   ar
     8     3    32    1
     9     4     5   ar
    10     5     6    1
    11     5    27   ar
    12     6     7    1
    13     6    33    1
    14     6    34    1
    15     7     8    1
    16     7    35    1
    17     8     9    1
    18     8    36    1
    19     8    37    1
    20     9    10    1
    21     9    11    1
    22     9    23    1
    23    11    12   am
    24    11    38    1
    25    12    13    2
    26    12    14    1
    27    14    15    1
    28    14    22    1
    29    14    16    1
    30    16    17    1
    31    16    39    1
    32    16    40    1
    33    17    18    1
    34    17    41    1
    35    17    42    1
    36    18    19    1
    37    18    20    1
    38    18    21    1
    39    20    43    1
    40    20    44    1
    41    20    45    1
    42    21    22    1
    43    21    46    1
    44    21    47    1
    45    22    48    1
    46    22    49    1
    47    23    24    1
    48    23    25    1
    49    23    26    1
    50    24    50    1
    51    24    51    1
    52    24    52    1
    53    25    53    1
    54    25    54    1
    55    25    55    1
    56    26    56    1
    57    26    57    1
    58    26    58    1
    59    27    28   ar
    60    28    59    1
@<TRIPOS>SUBSTRUCTURE
     1 ZINC001284642199        1 TEMP              0 ****  ****    0 ROOT


##########                                Name:    ZINC000864730443
##########                DOCK_Rotatable_Bonds:                  10
##########                         Heavy_Atoms:                  25
##########                    Molecular_Weight:             356.462
##########                DOCK_Rotatable_Bonds:                  10
##########                       Formal_Charge:           0.0299988
##########                     HBond_Acceptors:                   7
##########                        HBond_Donors:                   2
##########                         Heavy_Atoms:                  25
##########                          Grid_Score:          -27.636839
##########                     Grid_vdw_energy:          -26.119888
##########                      Grid_es_energy:           -1.516951
##########           Internal_energy_repulsive:           19.327080

@<TRIPOS>MOLECULE
ZINC000864730443
 57 58 1 0 0
SMALL
USER_CHARGES


@<TRIPOS>ATOM
      1 C1         -8.8693    1.0304   66.3425 C.3     1  ZINC000864730443   -0.1800
      2 C2         -8.2702    1.2962   64.9599 C.3     1  ZINC000864730443    0.1400
      3 C3         -8.3059    2.7977   64.6686 C.3     1  ZINC000864730443   -0.1800
      4 C4         -6.8216    0.8049   64.9288 C.3     1  ZINC000864730443   -0.1400
      5 O5         -9.0427    0.5895   63.9538 O.3     1  ZINC000864730443   -0.3600
      6 C6         -9.4295    1.2940   62.8736 C.2     1  ZINC000864730443    0.6500
      7 O7        -10.5112    1.8476   62.8649 O.2     1  ZINC000864730443   -0.5700
      8 N8         -8.6170    1.3853   61.8023 N.am    1  ZINC000864730443   -0.7100
      9 C9         -9.0372    2.1534   60.6276 C.3     1  ZINC000864730443    0.1500
     10 C10        -8.3402    1.6025   59.3820 C.3     1  ZINC000864730443   -0.1300
     11 C11        -8.7266    0.1592   59.1856 C.2     1  ZINC000864730443    0.5300
     12 O12        -7.9326   -0.7212   59.4415 O.2     1  ZINC000864730443   -0.5300
     13 N13        -9.9542   -0.1532   58.7254 N.am    1  ZINC000864730443   -0.7200
     14 C14       -10.3298   -1.5563   58.5345 C.3     1  ZINC000864730443    0.1200
     15 C15       -11.3152   -1.6665   57.3693 C.3     1  ZINC000864730443   -0.1300
     16 C16       -12.5128   -2.5191   57.7931 C.3     1  ZINC000864730443    0.0800
     17 H17       -12.1804   -3.5103   58.1019 H       1  ZINC000864730443    0.0800
     18 C18       -13.2846   -1.8276   58.9450 C.3     1  ZINC000864730443   -0.1500
     19 C19       -14.6974   -2.4477   58.7671 C.3     1  ZINC000864730443   -0.1600
     20 C20       -14.7933   -2.6103   57.2348 C.3     1  ZINC000864730443    0.0500
     21 O21       -13.4570   -2.6233   56.7156 O.3     1  ZINC000864730443   -0.3800
     22 C22        -8.7624    2.4183   58.1562 C.3     1  ZINC000864730443   -0.1000
     23 C23        -7.9998    1.9082   56.9297 C.3     1  ZINC000864730443   -0.1600
     24 C24        -6.4955    2.0006   57.1990 C.3     1  ZINC000864730443    0.0600
     25 O25        -6.1752    1.2455   58.3692 O.3     1  ZINC000864730443   -0.3700
     26 C26        -6.8229    1.7067   59.5567 C.3     1  ZINC000864730443    0.0800
     27 H27        -9.9013    1.3805   66.3647 H       1  ZINC000864730443    0.0900
     28 H28        -8.8439   -0.0393   66.5500 H       1  ZINC000864730443    0.0600
     29 H29        -8.2894    1.5610   67.0977 H       1  ZINC000864730443    0.0700
     30 H30        -7.7260    3.3282   65.4239 H       1  ZINC000864730443    0.0700
     31 H31        -7.8791    2.9870   63.6837 H       1  ZINC000864730443    0.0600
     32 H32        -9.3380    3.1477   64.6908 H       1  ZINC000864730443    0.0900
     33 H33        -6.7961   -0.2649   65.1363 H       1  ZINC000864730443    0.0700
     34 H34        -6.3947    0.9942   63.9438 H       1  ZINC000864730443    0.0700
     35 H35        -6.2417    1.3354   65.6841 H       1  ZINC000864730443    0.0800
     36 H36        -7.7541    0.9423   61.8088 H       1  ZINC000864730443    0.4100
     37 H37       -10.1173    2.0703   60.5064 H       1  ZINC000864730443    0.0900
     38 H38        -8.7662    3.2005   60.7624 H       1  ZINC000864730443    0.0800
     39 H39       -10.5892    0.5510   58.5208 H       1  ZINC000864730443    0.4000
     40 H40        -9.4387   -2.1440   58.3136 H       1  ZINC000864730443    0.0700
     41 H41       -10.7980   -1.9341   59.4434 H       1  ZINC000864730443    0.0700
     42 H42       -11.6591   -0.6709   57.0889 H       1  ZINC000864730443    0.0800
     43 H43       -10.8201   -2.1331   56.5177 H       1  ZINC000864730443    0.0800
     44 H44       -12.8602   -2.0886   59.9145 H       1  ZINC000864730443    0.0900
     45 H45       -13.3099   -0.7466   58.8075 H       1  ZINC000864730443    0.0800
     46 H46       -14.7618   -3.4153   59.2647 H       1  ZINC000864730443    0.0800
     47 H47       -15.4677   -1.7694   59.1342 H       1  ZINC000864730443    0.0800
     48 H48       -15.2915   -3.5491   56.9932 H       1  ZINC000864730443    0.0700
     49 H49       -15.3487   -1.7750   56.8085 H       1  ZINC000864730443    0.0700
     50 H50        -9.8340    2.3032   57.9931 H       1  ZINC000864730443    0.0800
     51 H51        -8.5281    3.4702   58.3199 H       1  ZINC000864730443    0.0800
     52 H52        -8.2723    0.8706   56.7369 H       1  ZINC000864730443    0.0900
     53 H53        -8.2529    2.5192   56.0632 H       1  ZINC000864730443    0.0800
     54 H54        -5.9482    1.5991   56.3462 H       1  ZINC000864730443    0.1000
     55 H55        -6.2170    3.0432   57.3517 H       1  ZINC000864730443    0.0500
     56 H56        -6.5485    2.7456   59.7401 H       1  ZINC000864730443    0.0700
     57 H57        -6.5113    1.0936   60.4022 H       1  ZINC000864730443    0.1000
@<TRIPOS>BOND
     1     1     2    1
     2     1    27    1
     3     1    28    1
     4     1    29    1
     5     2     3    1
     6     2     4    1
     7     2     5    1
     8     3    30    1
     9     3    31    1
    10     3    32    1
    11     4    33    1
    12     4    34    1
    13     4    35    1
    14     5     6    1
    15     6     7    2
    16     6     8   am
    17     8     9    1
    18     8    36    1
    19     9    10    1
    20     9    37    1
    21     9    38    1
    22    10    26    1
    23    10    11    1
    24    10    22    1
    25    11    12    2
    26    11    13   am
    27    13    14    1
    28    13    39    1
    29    14    15    1
    30    14    40    1
    31    14    41    1
    32    15    16    1
    33    15    42    1
    34    15    43    1
    35    16    17    1
    36    16    21    1
    37    16    18    1
    38    18    19    1
    39    18    44    1
    40    18    45    1
    41    19    20    1
    42    19    46    1
    43    19    47    1
    44    20    21    1
    45    20    48    1
    46    20    49    1
    47    22    23    1
    48    22    50    1
    49    22    51    1
    50    23    24    1
    51    23    52    1
    52    23    53    1
    53    24    25    1
    54    24    54    1
    55    24    55    1
    56    25    26    1
    57    26    56    1
    58    26    57    1
@<TRIPOS>SUBSTRUCTURE
     1 ZINC000864730443        1 TEMP              0 ****  ****    0 ROOT


##########                                Name:    ZINC000504860563
##########                DOCK_Rotatable_Bonds:                   6
##########                         Heavy_Atoms:                  25
##########                    Molecular_Weight:             370.786
##########                DOCK_Rotatable_Bonds:                   6
##########                       Formal_Charge:                0.01
##########                     HBond_Acceptors:                   9
##########                        HBond_Donors:                   0
##########                         Heavy_Atoms:                  25
##########                          Grid_Score:          -27.630764
##########                     Grid_vdw_energy:          -26.054489
##########                      Grid_es_energy:           -1.576274
##########           Internal_energy_repulsive:           14.096756

@<TRIPOS>MOLECULE
ZINC000504860563
 42 44 1 0 0
SMALL
USER_CHARGES


@<TRIPOS>ATOM
      1 O1         -6.4080    5.1644   53.6627 O.2     1  ZINC000504860563   -0.5100
      2 C2         -5.5025    4.5627   54.2063 C.2     1  ZINC000504860563    0.5700
      3 C3         -4.4338    3.9436   53.3938 C.ar    1  ZINC000504860563    0.0500
      4 N4         -3.1794    4.3601   53.5257 N.ar    1  ZINC000504860563   -0.4100
      5 C5         -2.2005    3.8361   52.8230 C.ar    1  ZINC000504860563    0.0600
      6 C6         -2.4393    2.8201   51.9092 C.ar    1  ZINC000504860563   -0.1000
      7 C7         -3.7291    2.3513   51.7351 C.ar    1  ZINC000504860563   -0.1700
      8 C8         -4.7495    2.9186   52.4951 C.ar    1  ZINC000504860563    0.1400
      9 O9         -6.0297    2.4912   52.3591 O.3     1  ZINC000504860563   -0.2600
     10 C10        -6.4083    1.3304   53.1015 C.3     1  ZINC000504860563   -0.0100
     11 C11        -7.8886    1.4253   53.4766 C.3     1  ZINC000504860563    0.2800
     12 F12        -8.2654    0.2772   54.1818 F       1  ZINC000504860563   -0.1900
     13 F13        -8.0952    2.5535   54.2778 F       1  ZINC000504860563   -0.1900
     14 N14        -5.4697    4.4648   55.5502 N.am    1  ZINC000504860563   -0.6000
     15 C15        -6.5276    5.0697   56.3709 C.3     1  ZINC000504860563    0.0800
     16 C16        -7.1034    3.9977   57.3014 C.3     1  ZINC000504860563   -0.1500
     17 C17        -5.9673    3.3641   58.1077 C.3     1  ZINC000504860563    0.1600
     18 N18        -6.5182    2.3614   59.0226 N.pl3   1  ZINC000504860563   -0.3600
     19 C19        -7.2694    2.6115   60.1166 C.2     1  ZINC000504860563    0.0700
     20 C20        -7.5772    1.4227   60.6860 C.2     1  ZINC000504860563   -0.1900
     21 Cl21       -8.5276    1.1925   62.1205 Cl      1  ZINC000504860563   -0.0400
     22 C22        -6.9944    0.4118   59.9136 C.2     1  ZINC000504860563    0.0600
     23 N23        -6.3640    0.9732   58.9138 N.2     1  ZINC000504860563   -0.2800
     24 C24        -4.9750    2.6940   57.1544 C.3     1  ZINC000504860563   -0.1400
     25 C25        -4.3784    3.7460   56.2219 C.3     1  ZINC000504860563    0.1200
     26 H26        -1.1937    4.2026   52.9589 H       1  ZINC000504860563    0.1700
     27 H27        -1.6251    2.3990   51.3381 H       1  ZINC000504860563    0.1500
     28 H28        -3.9395    1.5612   51.0295 H       1  ZINC000504860563    0.1500
     29 H29        -6.2440    0.4406   52.4935 H       1  ZINC000504860563    0.1000
     30 H30        -5.8070    1.2668   54.0084 H       1  ZINC000504860563    0.1000
     31 H31        -8.4884    1.5083   52.5704 H       1  ZINC000504860563    0.1300
     32 H32        -6.1097    5.8827   56.9645 H       1  ZINC000504860563    0.0700
     33 H33        -7.3165    5.4545   55.7246 H       1  ZINC000504860563    0.1600
     34 H34        -7.8217    4.4545   57.9822 H       1  ZINC000504860563    0.0900
     35 H35        -7.6006    3.2300   56.7085 H       1  ZINC000504860563    0.0700
     36 H36        -5.4545    4.1363   58.6813 H       1  ZINC000504860563    0.1100
     37 H37        -7.5701    3.5855   60.4735 H       1  ZINC000504860563    0.1800
     38 H38        -7.0570   -0.6489   60.1072 H       1  ZINC000504860563    0.1900
     39 H39        -4.1786    2.2230   57.7306 H       1  ZINC000504860563    0.0900
     40 H40        -5.4924    1.9388   56.5628 H       1  ZINC000504860563    0.0800
     41 H41        -3.7474    3.2594   55.4782 H       1  ZINC000504860563    0.1000
     42 H42        -3.7849    4.4534   56.8012 H       1  ZINC000504860563    0.0800
@<TRIPOS>BOND
     1     1     2    2
     2     2     3    1
     3     2    14   am
     4     3     8   ar
     5     3     4   ar
     6     4     5   ar
     7     5     6   ar
     8     5    26    1
     9     6     7   ar
    10     6    27    1
    11     7     8   ar
    12     7    28    1
    13     8     9    1
    14     9    10    1
    15    10    11    1
    16    10    29    1
    17    10    30    1
    18    11    12    1
    19    11    13    1
    20    11    31    1
    21    14    25    1
    22    14    15    1
    23    15    16    1
    24    15    32    1
    25    15    33    1
    26    16    17    1
    27    16    34    1
    28    16    35    1
    29    17    18    1
    30    17    24    1
    31    17    36    1
    32    18    23    1
    33    18    19    1
    34    19    20    2
    35    19    37    1
    36    20    21    1
    37    20    22    1
    38    22    23    2
    39    22    38    1
    40    24    25    1
    41    24    39    1
    42    24    40    1
    43    25    41    1
    44    25    42    1
@<TRIPOS>SUBSTRUCTURE
     1 ZINC000504860563        1 TEMP              0 ****  ****    0 ROOT


##########                                Name:    ZINC001070580102
##########                DOCK_Rotatable_Bonds:                   8
##########                         Heavy_Atoms:                  25
##########                    Molecular_Weight:              349.39
##########                DOCK_Rotatable_Bonds:                   8
##########                       Formal_Charge:          -0.0100003
##########                     HBond_Acceptors:                   9
##########                        HBond_Donors:                   3
##########                         Heavy_Atoms:                  25
##########                          Grid_Score:          -27.625431
##########                     Grid_vdw_energy:          -26.963575
##########                      Grid_es_energy:           -0.661857
##########           Internal_energy_repulsive:           13.362879

@<TRIPOS>MOLECULE
ZINC001070580102
 48 50 1 0 0
SMALL
USER_CHARGES


@<TRIPOS>ATOM
      1 C1        -15.0591   -0.9879   58.0806 C.3     1  ZINC001070580102   -0.0800
      2 C2        -13.5627   -1.0244   57.9065 C.2     1  ZINC001070580102   -0.0100
      3 C3        -12.9178   -1.1088   56.7329 C.2     1  ZINC001070580102   -0.1900
      4 C4        -11.4841   -1.1121   57.0588 C.2     1  ZINC001070580102   -0.2500
      5 C5        -10.3558   -1.1894   56.1138 C.2     1  ZINC001070580102    0.6000
      6 O6         -9.2128   -1.1605   56.5280 O.2     1  ZINC001070580102   -0.5300
      7 N7        -10.5909   -1.2922   54.7907 N.am    1  ZINC001070580102   -0.7200
      8 C8         -9.4693   -1.3672   53.8513 C.3     1  ZINC001070580102    0.2000
      9 C9         -9.0189    0.0259   53.4943 C.2     1  ZINC001070580102    0.2600
     10 N10        -7.8238    0.3656   53.0842 N.2     1  ZINC001070580102   -0.5100
     11 C11        -7.7787    1.6783   52.8607 C.2     1  ZINC001070580102    0.2300
     12 C12        -6.5734    2.4437   52.3787 C.3     1  ZINC001070580102    0.1400
     13 H13        -6.8903    3.4053   51.9751 H       1  ZINC001070580102    0.0800
     14 C14        -5.8611    1.6409   51.2869 C.3     1  ZINC001070580102    0.0800
     15 O15        -4.6774    2.3362   50.8863 O.3     1  ZINC001070580102   -0.3800
     16 C16        -3.7547    2.5652   51.9548 C.3     1  ZINC001070580102    0.0600
     17 C17        -4.4456    3.3775   53.0533 C.3     1  ZINC001070580102    0.0200
     18 N18        -5.6498    2.6628   53.5013 N.3     1  ZINC001070580102   -0.5200
     19 C19        -6.3124    3.3830   54.5969 C.3     1  ZINC001070580102    0.0600
     20 C20        -6.4519    2.4557   55.8058 C.3     1  ZINC001070580102    0.0800
     21 O21        -5.1946    2.3568   56.4778 O.3     1  ZINC001070580102   -0.5700
     22 N22        -8.9498    2.1946   53.1267 N.2     1  ZINC001070580102   -0.2700
     23 N23        -9.7765    1.1355   53.5361 N.pl3   1  ZINC001070580102   -0.4700
     24 C24       -11.4166   -1.0278   58.4187 C.2     1  ZINC001070580102    0.0900
     25 C25       -10.1523   -0.9969   59.2382 C.3     1  ZINC001070580102   -0.0900
     26 O26       -12.6620   -0.9719   58.9003 O.3     1  ZINC001070580102   -0.1700
     27 H27       -15.2998   -0.9124   59.1410 H       1  ZINC001070580102    0.0800
     28 H28       -15.4653   -0.1245   57.5535 H       1  ZINC001070580102    0.0900
     29 H29       -15.4946   -1.9002   57.6732 H       1  ZINC001070580102    0.0900
     30 H30       -13.3612   -1.1635   55.7496 H       1  ZINC001070580102    0.1500
     31 H31       -11.5026   -1.3164   54.4604 H       1  ZINC001070580102    0.4000
     32 H32        -8.6438   -1.9087   54.3133 H       1  ZINC001070580102    0.1000
     33 H33        -9.7859   -1.8892   52.9482 H       1  ZINC001070580102    0.1100
     34 H34        -5.5923    0.6582   51.6745 H       1  ZINC001070580102    0.0700
     35 H35        -6.5236    1.5257   50.4290 H       1  ZINC001070580102    0.1000
     36 H36        -3.4247    1.6094   52.3618 H       1  ZINC001070580102    0.0600
     37 H37        -2.8937    3.1186   51.5799 H       1  ZINC001070580102    0.1000
     38 H38        -3.7643    3.5055   53.8944 H       1  ZINC001070580102    0.1200
     39 H39        -4.7279    4.3543   52.6607 H       1  ZINC001070580102    0.0400
     40 H40        -5.7162    4.2526   54.8729 H       1  ZINC001070580102    0.0500
     41 H41        -7.3009    3.7082   54.2724 H       1  ZINC001070580102    0.0800
     42 H42        -7.1984    2.8599   56.4895 H       1  ZINC001070580102    0.0500
     43 H43        -6.7637    1.4665   55.4709 H       1  ZINC001070580102    0.0600
     44 H44        -4.4749    2.0312   55.9198 H       1  ZINC001070580102    0.3800
     45 H45       -10.7075    1.1942   53.8023 H       1  ZINC001070580102    0.4400
     46 H46        -9.8309    0.0361   59.3715 H       1  ZINC001070580102    0.0900
     47 H47       -10.3400   -1.4476   60.2128 H       1  ZINC001070580102    0.0800
     48 H48        -9.3717   -1.5568   58.7233 H       1  ZINC001070580102    0.1100
@<TRIPOS>BOND
     1     1     2    1
     2     1    27    1
     3     1    28    1
     4     1    29    1
     5     2    26    1
     6     2     3    2
     7     3     4    1
     8     3    30    1
     9     4     5    1
    10     4    24    2
    11     5     6    2
    12     5     7   am
    13     7     8    1
    14     7    31    1
    15     8     9    1
    16     8    32    1
    17     8    33    1
    18     9    23    1
    19     9    10    2
    20    10    11    1
    21    11    12    1
    22    11    22    2
    23    12    13    1
    24    12    18    1
    25    12    14    1
    26    14    15    1
    27    14    34    1
    28    14    35    1
    29    15    16    1
    30    16    17    1
    31    16    36    1
    32    16    37    1
    33    17    18    1
    34    17    38    1
    35    17    39    1
    36    18    19    1
    37    19    20    1
    38    19    40    1
    39    19    41    1
    40    20    21    1
    41    20    42    1
    42    20    43    1
    43    21    44    1
    44    22    23    1
    45    23    45    1
    46    24    25    1
    47    24    26    1
    48    25    46    1
    49    25    47    1
    50    25    48    1
@<TRIPOS>SUBSTRUCTURE
     1 ZINC001070580102        1 TEMP              0 ****  ****    0 ROOT


##########                                Name:    ZINC000945148121
##########                DOCK_Rotatable_Bonds:                   6
##########                         Heavy_Atoms:                  24
##########                    Molecular_Weight:             332.446
##########                DOCK_Rotatable_Bonds:                   6
##########                       Formal_Charge:           0.0100009
##########                     HBond_Acceptors:                   6
##########                        HBond_Donors:                   2
##########                         Heavy_Atoms:                  24
##########                          Grid_Score:          -27.624882
##########                     Grid_vdw_energy:          -26.513245
##########                      Grid_es_energy:           -1.111637
##########           Internal_energy_repulsive:           17.548018

@<TRIPOS>MOLECULE
ZINC000945148121
 52 54 1 0 0
SMALL
USER_CHARGES


@<TRIPOS>ATOM
      1 O1        -13.9450    0.4936   55.7952 O.2     1  ZINC000945148121   -0.5100
      2 C2        -13.3222   -0.0995   56.6503 C.2     1  ZINC000945148121    0.5200
      3 C3        -13.9565   -0.3758   57.9892 C.3     1  ZINC000945148121   -0.0500
      4 C4        -14.6482   -1.7141   57.9507 C.2     1  ZINC000945148121    0.0100
      5 C5        -15.0946   -2.3429   56.8467 C.2     1  ZINC000945148121   -0.0500
      6 N6        -15.6530   -3.5219   57.2608 N.pl3   1  ZINC000945148121   -0.5700
      7 C7        -15.5283   -3.5728   58.6045 C.2     1  ZINC000945148121    0.1800
      8 N8        -14.9219   -2.4905   59.0097 N.2     1  ZINC000945148121   -0.4700
      9 N9        -12.0650   -0.5166   56.4014 N.am    1  ZINC000945148121   -0.7300
     10 C10       -11.4485   -0.2480   55.0999 C.3     1  ZINC000945148121    0.1500
     11 C11       -10.6306    1.0431   55.1798 C.3     1  ZINC000945148121   -0.1400
     12 C12       -10.0158    1.3391   53.8083 C.3     1  ZINC000945148121    0.1100
     13 N13        -9.2486    0.1650   53.3705 N.am    1  ZINC000945148121   -0.6100
     14 C14        -7.9582    0.2866   53.0011 C.2     1  ZINC000945148121    0.5200
     15 O15        -7.3361   -0.6900   52.6404 O.2     1  ZINC000945148121   -0.5400
     16 C16        -7.2883    1.6360   53.0364 C.3     1  ZINC000945148121   -0.1000
     17 C17        -6.8781    1.9601   54.4473 C.3     1  ZINC000945148121   -0.1200
     18 C18        -6.9773    3.4656   54.7590 C.3     1  ZINC000945148121   -0.1200
     19 C19        -6.4639    4.3495   53.6063 C.3     1  ZINC000945148121   -0.1200
     20 C20        -5.2038    3.8108   52.9849 C.3     1  ZINC000945148121   -0.1200
     21 C21        -5.5891    2.9449   51.7680 C.3     1  ZINC000945148121   -0.1200
     22 C22        -6.0245    1.6103   52.1524 C.3     1  ZINC000945148121   -0.1000
     23 C23        -9.9148   -1.1444   53.3437 C.3     1  ZINC000945148121    0.1100
     24 C24       -10.5307   -1.4125   54.7205 C.3     1  ZINC000945148121   -0.1400
     25 H25       -13.1865   -0.3869   58.7607 H       1  ZINC000945148121    0.1000
     26 H26       -14.6848    0.4033   58.2140 H       1  ZINC000945148121    0.1000
     27 H27       -15.0256   -1.9853   55.8299 H       1  ZINC000945148121    0.1800
     28 H28       -16.0619   -4.1953   56.6948 H       1  ZINC000945148121    0.4200
     29 H29       -15.8700   -4.3777   59.2384 H       1  ZINC000945148121    0.2100
     30 H30       -11.5684   -0.9944   57.0840 H       1  ZINC000945148121    0.4000
     31 H31       -12.2270   -0.1383   54.3449 H       1  ZINC000945148121    0.0900
     32 H32       -11.2804    1.8677   55.4728 H       1  ZINC000945148121    0.0800
     33 H33        -9.8363    0.9256   55.9168 H       1  ZINC000945148121    0.0700
     34 H34       -10.8086    1.5462   53.0894 H       1  ZINC000945148121    0.0700
     35 H35        -9.3532    2.2013   53.8831 H       1  ZINC000945148121    0.1000
     36 H36        -7.9771    2.3965   52.6684 H       1  ZINC000945148121    0.1000
     37 H37        -7.5228    1.4142   55.1362 H       1  ZINC000945148121    0.0700
     38 H38        -5.8486    1.6357   54.5987 H       1  ZINC000945148121    0.0700
     39 H39        -8.0197    3.7159   54.9565 H       1  ZINC000945148121    0.0600
     40 H40        -6.3914    3.6789   55.6531 H       1  ZINC000945148121    0.0700
     41 H41        -7.2361    4.4128   52.8396 H       1  ZINC000945148121    0.0600
     42 H42        -6.2678    5.3507   53.9899 H       1  ZINC000945148121    0.0600
     43 H43        -4.5729    4.6383   52.6603 H       1  ZINC000945148121    0.0600
     44 H44        -4.6680    3.2017   53.7128 H       1  ZINC000945148121    0.0700
     45 H45        -6.3966    3.4371   51.2260 H       1  ZINC000945148121    0.0600
     46 H46        -4.7255    2.8582   51.1088 H       1  ZINC000945148121    0.0600
     47 H47        -5.2199    1.1209   52.7010 H       1  ZINC000945148121    0.0700
     48 H48        -6.2358    1.0347   51.2511 H       1  ZINC000945148121    0.0700
     49 H49       -10.6993   -1.1397   52.5870 H       1  ZINC000945148121    0.0700
     50 H50        -9.1855   -1.9207   53.1122 H       1  ZINC000945148121    0.1000
     51 H51        -9.7373   -1.5069   55.4618 H       1  ZINC000945148121    0.0700
     52 H52       -11.1094   -2.3356   54.6866 H       1  ZINC000945148121    0.0800
@<TRIPOS>BOND
     1     1     2    2
     2     2     3    1
     3     2     9   am
     4     3     4    1
     5     3    25    1
     6     3    26    1
     7     4     8    1
     8     4     5    2
     9     5     6    1
    10     5    27    1
    11     6     7    1
    12     6    28    1
    13     7     8    2
    14     7    29    1
    15     9    10    1
    16     9    30    1
    17    10    24    1
    18    10    11    1
    19    10    31    1
    20    11    12    1
    21    11    32    1
    22    11    33    1
    23    12    13    1
    24    12    34    1
    25    12    35    1
    26    13    14   am
    27    13    23    1
    28    14    15    2
    29    14    16    1
    30    16    22    1
    31    16    17    1
    32    16    36    1
    33    17    18    1
    34    17    37    1
    35    17    38    1
    36    18    19    1
    37    18    39    1
    38    18    40    1
    39    19    20    1
    40    19    41    1
    41    19    42    1
    42    20    21    1
    43    20    43    1
    44    20    44    1
    45    21    22    1
    46    21    45    1
    47    21    46    1
    48    22    47    1
    49    22    48    1
    50    23    24    1
    51    23    49    1
    52    23    50    1
    53    24    51    1
    54    24    52    1
@<TRIPOS>SUBSTRUCTURE
     1 ZINC000945148121        1 TEMP              0 ****  ****    0 ROOT


##########                                Name:    ZINC000435292384
##########                DOCK_Rotatable_Bonds:                   6
##########                         Heavy_Atoms:                  22
##########                    Molecular_Weight:             326.503
##########                DOCK_Rotatable_Bonds:                   6
##########                       Formal_Charge:         -0.00999993
##########                     HBond_Acceptors:                   5
##########                        HBond_Donors:                   0
##########                         Heavy_Atoms:                  22
##########                          Grid_Score:          -27.613121
##########                     Grid_vdw_energy:          -27.670227
##########                      Grid_es_energy:            0.057107
##########           Internal_energy_repulsive:           22.334108

@<TRIPOS>MOLECULE
ZINC000435292384
 52 53 1 0 0
SMALL
USER_CHARGES


@<TRIPOS>ATOM
      1 C1         -7.9806    0.3207   66.0640 C.3     1  ZINC000435292384   -0.1500
      2 C2         -7.2775    0.6962   64.7581 C.3     1  ZINC000435292384   -0.1200
      3 C3         -8.2943    0.7023   63.6149 C.3     1  ZINC000435292384   -0.1400
      4 C4         -7.5772    0.9984   62.2961 C.3     1  ZINC000435292384    0.1600
      5 H5         -6.5863    0.5445   62.3116 H       1  ZINC000435292384    0.0900
      6 C6         -7.4422    2.5119   62.1176 C.3     1  ZINC000435292384   -0.1700
      7 N7         -8.3517    0.4425   61.1837 N.am    1  ZINC000435292384   -0.6100
      8 C8         -9.7903    0.1571   61.2374 C.3     1  ZINC000435292384    0.1200
      9 C9        -10.2374    0.0149   59.7655 C.3     1  ZINC000435292384   -0.1300
     10 H10       -10.5943    0.9668   59.3726 H       1  ZINC000435292384    0.1100
     11 C11       -11.2908   -1.0534   59.6227 C.2     1  ZINC000435292384    0.5200
     12 O12       -11.0347   -2.0827   59.0349 O.2     1  ZINC000435292384   -0.5200
     13 N13       -12.5175   -0.8646   60.1481 N.am    1  ZINC000435292384   -0.6000
     14 C14       -12.7966    0.3995   60.8573 C.3     1  ZINC000435292384    0.1000
     15 C15       -14.1842    0.9670   60.5072 C.3     1  ZINC000435292384   -0.1300
     16 C16       -14.4565    0.7979   59.0328 C.3     1  ZINC000435292384   -0.1100
     17 C17       -15.1809   -0.5245   58.8008 C.3     1  ZINC000435292384   -0.1200
     18 C18       -14.2912   -1.6893   58.6771 C.3     1  ZINC000435292384   -0.0700
     19 H19       -13.5882   -1.5212   57.8612 H       1  ZINC000435292384    0.0900
     20 S20       -15.2820   -3.1665   58.3210 S.3     1  ZINC000435292384   -0.2500
     21 C21       -15.8330   -2.8868   56.6155 C.3     1  ZINC000435292384   -0.1200
     22 C22       -13.5074   -1.9062   59.9889 C.3     1  ZINC000435292384    0.1400
     23 C23        -8.9204   -0.4097   59.0755 C.3     1  ZINC000435292384   -0.1400
     24 C24        -7.8371    0.1338   59.9809 C.2     1  ZINC000435292384    0.5200
     25 O25        -6.6724    0.2650   59.6692 O.2     1  ZINC000435292384   -0.5200
     26 H26        -7.2562    0.3163   66.8785 H       1  ZINC000435292384    0.0500
     27 H27        -8.7632    1.0488   66.2778 H       1  ZINC000435292384    0.0500
     28 H28        -8.4234   -0.6706   65.9663 H       1  ZINC000435292384    0.0500
     29 H29        -6.8346    1.6874   64.8558 H       1  ZINC000435292384    0.0600
     30 H30        -6.4949   -0.0319   64.5444 H       1  ZINC000435292384    0.0600
     31 H31        -8.7787   -0.2722   63.5542 H       1  ZINC000435292384    0.0800
     32 H32        -9.0451    1.4704   63.8005 H       1  ZINC000435292384    0.0800
     33 H33        -8.4332    2.9657   62.1021 H       1  ZINC000435292384    0.0700
     34 H34        -6.8661    2.9254   62.9453 H       1  ZINC000435292384    0.0700
     35 H35        -6.9314    2.7228   61.1781 H       1  ZINC000435292384    0.0600
     36 H36        -9.9705   -0.7722   61.7778 H       1  ZINC000435292384    0.0900
     37 H37       -10.3207    0.9809   61.7148 H       1  ZINC000435292384    0.0800
     38 H38       -12.7480    0.2209   61.9315 H       1  ZINC000435292384    0.0700
     39 H39       -12.0362    1.1322   60.5873 H       1  ZINC000435292384    0.0900
     40 H40       -14.9462    0.4370   61.0786 H       1  ZINC000435292384    0.0700
     41 H41       -14.2160    2.0265   60.7615 H       1  ZINC000435292384    0.0800
     42 H42       -15.0794    1.6205   58.6814 H       1  ZINC000435292384    0.0700
     43 H43       -13.5132    0.7965   58.4866 H       1  ZINC000435292384    0.0600
     44 H44       -15.8624   -0.6966   59.6340 H       1  ZINC000435292384    0.0800
     45 H45       -15.7704   -0.4408   57.8877 H       1  ZINC000435292384    0.0600
     46 H46       -16.4184   -1.9686   56.5687 H       1  ZINC000435292384    0.0800
     47 H47       -14.9645   -2.7977   55.9629 H       1  ZINC000435292384    0.0800
     48 H48       -16.4474   -3.7263   56.2899 H       1  ZINC000435292384    0.1000
     49 H49       -13.0095   -2.8753   59.9583 H       1  ZINC000435292384    0.0900
     50 H50       -14.1972   -1.8795   60.8325 H       1  ZINC000435292384    0.0900
     51 H51        -8.8576   -1.4959   59.0088 H       1  ZINC000435292384    0.1100
     52 H52        -8.8467    0.0392   58.0850 H       1  ZINC000435292384    0.1100
@<TRIPOS>BOND
     1     1     2    1
     2     1    26    1
     3     1    27    1
     4     1    28    1
     5     2     3    1
     6     2    29    1
     7     2    30    1
     8     3     4    1
     9     3    31    1
    10     3    32    1
    11     4     5    1
    12     4     6    1
    13     4     7    1
    14     6    33    1
    15     6    34    1
    16     6    35    1
    17     7    24   am
    18     7     8    1
    19     8     9    1
    20     8    36    1
    21     8    37    1
    22     9    10    1
    23     9    11    1
    24     9    23    1
    25    11    12    2
    26    11    13   am
    27    13    22    1
    28    13    14    1
    29    14    15    1
    30    14    38    1
    31    14    39    1
    32    15    16    1
    33    15    40    1
    34    15    41    1
    35    16    17    1
    36    16    42    1
    37    16    43    1
    38    17    18    1
    39    17    44    1
    40    17    45    1
    41    18    19    1
    42    18    20    1
    43    18    22    1
    44    20    21    1
    45    21    46    1
    46    21    47    1
    47    21    48    1
    48    22    49    1
    49    22    50    1
    50    23    24    1
    51    23    51    1
    52    23    52    1
    53    24    25    2
@<TRIPOS>SUBSTRUCTURE
     1 ZINC000435292384        1 TEMP              0 ****  ****    0 ROOT


##########                                Name:    ZINC000470948647
##########                DOCK_Rotatable_Bonds:                   6
##########                         Heavy_Atoms:                  29
##########                    Molecular_Weight:             412.556
##########                DOCK_Rotatable_Bonds:                   6
##########                       Formal_Charge:           0.0100001
##########                     HBond_Acceptors:                   7
##########                        HBond_Donors:                   1
##########                         Heavy_Atoms:                  29
##########                          Grid_Score:          -27.609316
##########                     Grid_vdw_energy:          -27.240679
##########                      Grid_es_energy:           -0.368638
##########           Internal_energy_repulsive:           13.574031

@<TRIPOS>MOLECULE
ZINC000470948647
 57 60 1 0 0
SMALL
USER_CHARGES


@<TRIPOS>ATOM
      1 C1         -6.1398    1.5206   52.2003 C.3     1  ZINC000470948647   -0.1100
      2 C2         -7.3247    1.0255   52.9887 C.ar    1  ZINC000470948647   -0.1000
      3 C3         -7.6850   -0.3080   52.9283 C.ar    1  ZINC000470948647   -0.1100
      4 C4         -8.7707   -0.7650   53.6498 C.ar    1  ZINC000470948647   -0.1100
      5 C5         -9.5001    0.1162   54.4367 C.ar    1  ZINC000470948647    0.1400
      6 N6        -10.6001   -0.3436   55.1691 N.am    1  ZINC000470948647   -0.6700
      7 C7        -10.4174   -1.2026   56.1915 C.2     1  ZINC000470948647    0.5100
      8 O8         -9.2996   -1.5770   56.4766 O.2     1  ZINC000470948647   -0.4800
      9 C9        -11.6021   -1.6978   56.9804 C.3     1  ZINC000470948647    0.1200
     10 H10       -12.5077   -1.2540   56.5669 H       1  ZINC000470948647    0.1200
     11 C11       -11.6898   -3.2339   56.8335 C.3     1  ZINC000470948647   -0.0700
     12 S12       -10.8690   -3.7932   58.3848 S.3     1  ZINC000470948647   -0.2500
     13 C13       -11.4499   -2.3461   59.3631 C.3     1  ZINC000470948647    0.1600
     14 N14       -11.4579   -1.2652   58.3621 N.am    1  ZINC000470948647   -0.6000
     15 C15       -11.3426    0.0342   58.7007 C.2     1  ZINC000470948647    0.6300
     16 O16       -11.3557    0.8907   57.8380 O.2     1  ZINC000470948647   -0.5100
     17 C17       -11.2006    0.4178   60.1200 C.2     1  ZINC000470948647   -0.0100
     18 N18       -10.0931    0.8049   60.7209 N.2     1  ZINC000470948647   -0.2700
     19 N19       -10.3290    1.0619   61.9572 N.pl3   1  ZINC000470948647   -0.2700
     20 C20        -9.3271    1.5175   62.9243 C.3     1  ZINC000470948647    0.1500
     21 C21        -9.3665    0.6182   64.1615 C.3     1  ZINC000470948647   -0.1300
     22 C22        -8.3201    1.0940   65.1713 C.3     1  ZINC000470948647   -0.1200
     23 C23        -6.9301    1.0262   64.5356 C.3     1  ZINC000470948647   -0.1300
     24 C24        -6.8907    1.9254   63.2984 C.3     1  ZINC000470948647   -0.1200
     25 C25        -7.9370    1.4497   62.2886 C.3     1  ZINC000470948647   -0.1300
     26 C26       -11.6332    0.8520   62.2374 C.2     1  ZINC000470948647   -0.0100
     27 C27       -12.2289    0.4457   61.0917 C.2     1  ZINC000470948647   -0.1700
     28 C28        -9.1354    1.4552   54.4956 C.ar    1  ZINC000470948647   -0.1100
     29 C29        -9.9240    2.4150   55.3487 C.3     1  ZINC000470948647   -0.1100
     30 C30        -8.0461    1.9048   53.7757 C.ar    1  ZINC000470948647   -0.1000
     31 H31        -5.2379    1.4331   52.8062 H       1  ZINC000470948647    0.0700
     32 H32        -6.0294    0.9223   51.2959 H       1  ZINC000470948647    0.0700
     33 H33        -6.2948    2.5648   51.9284 H       1  ZINC000470948647    0.0700
     34 H34        -7.1172   -0.9929   52.3161 H       1  ZINC000470948647    0.1200
     35 H35        -9.0520   -1.8066   53.6017 H       1  ZINC000470948647    0.1400
     36 H36       -11.4942   -0.0441   54.9411 H       1  ZINC000470948647    0.4100
     37 H37       -12.7277   -3.5652   56.7983 H       1  ZINC000470948647    0.1200
     38 H38       -11.1417   -3.5753   55.9554 H       1  ZINC000470948647    0.1200
     39 H39       -12.4524   -2.5208   59.7535 H       1  ZINC000470948647    0.1000
     40 H40       -10.7532   -2.1203   60.1704 H       1  ZINC000470948647    0.1400
     41 H41        -9.5438    2.5453   63.2151 H       1  ZINC000470948647    0.1100
     42 H42       -10.3568    0.6665   64.6143 H       1  ZINC000470948647    0.0800
     43 H43        -9.1497   -0.4097   63.8705 H       1  ZINC000470948647    0.0800
     44 H44        -8.5369    2.1218   65.4622 H       1  ZINC000470948647    0.0700
     45 H45        -8.3483    0.4533   66.0527 H       1  ZINC000470948647    0.0800
     46 H46        -6.1847    1.3651   65.2550 H       1  ZINC000470948647    0.0700
     47 H47        -6.7133   -0.0017   64.2447 H       1  ZINC000470948647    0.0700
     48 H48        -7.1075    2.9533   63.5893 H       1  ZINC000470948647    0.0700
     49 H49        -5.9004    1.8771   62.8456 H       1  ZINC000470948647    0.0700
     50 H50        -7.7203    0.4218   61.9977 H       1  ZINC000470948647    0.0700
     51 H51        -7.9089    2.0903   61.4071 H       1  ZINC000470948647    0.0700
     52 H52       -12.1125    0.9877   63.1956 H       1  ZINC000470948647    0.1800
     53 H53       -13.2685    0.1896   60.9509 H       1  ZINC000470948647    0.1600
     54 H54        -9.4984    2.4436   56.3518 H       1  ZINC000470948647    0.0700
     55 H55        -9.8827    3.4110   54.9081 H       1  ZINC000470948647    0.0700
     56 H56       -10.9612    2.0845   55.4035 H       1  ZINC000470948647    0.0600
     57 H57        -7.7618    2.9457   53.8213 H       1  ZINC000470948647    0.1300
@<TRIPOS>BOND
     1     1     2    1
     2     1    31    1
     3     1    32    1
     4     1    33    1
     5     2    30   ar
     6     2     3   ar
     7     3     4   ar
     8     3    34    1
     9     4     5   ar
    10     4    35    1
    11     5     6    1
    12     5    28   ar
    13     6     7   am
    14     6    36    1
    15     7     8    2
    16     7     9    1
    17     9    10    1
    18     9    14    1
    19     9    11    1
    20    11    12    1
    21    11    37    1
    22    11    38    1
    23    12    13    1
    24    13    14    1
    25    13    39    1
    26    13    40    1
    27    14    15   am
    28    15    16    2
    29    15    17    1
    30    17    27    1
    31    17    18    2
    32    18    19    1
    33    19    20    1
    34    19    26    1
    35    20    25    1
    36    20    21    1
    37    20    41    1
    38    21    22    1
    39    21    42    1
    40    21    43    1
    41    22    23    1
    42    22    44    1
    43    22    45    1
    44    23    24    1
    45    23    46    1
    46    23    47    1
    47    24    25    1
    48    24    48    1
    49    24    49    1
    50    25    50    1
    51    25    51    1
    52    26    27    2
    53    26    52    1
    54    27    53    1
    55    28    29    1
    56    28    30   ar
    57    29    54    1
    58    29    55    1
    59    29    56    1
    60    30    57    1
@<TRIPOS>SUBSTRUCTURE
     1 ZINC000470948647        1 TEMP              0 ****  ****    0 ROOT


##########                                Name:    ZINC000523878927
##########                DOCK_Rotatable_Bonds:                   8
##########                         Heavy_Atoms:                  27
##########                    Molecular_Weight:             376.474
##########                DOCK_Rotatable_Bonds:                   8
##########                       Formal_Charge:          0.00999957
##########                     HBond_Acceptors:                   7
##########                        HBond_Donors:                   3
##########                         Heavy_Atoms:                  27
##########                          Grid_Score:          -27.608599
##########                     Grid_vdw_energy:          -27.484011
##########                      Grid_es_energy:           -0.124587
##########           Internal_energy_repulsive:            6.589871

@<TRIPOS>MOLECULE
ZINC000523878927
 56 58 1 0 0
SMALL
USER_CHARGES


@<TRIPOS>ATOM
      1 C1         -8.5325    2.6926   62.2223 C.3     1  ZINC000523878927   -0.1500
      2 C2         -8.5137    1.2087   62.5941 C.3     1  ZINC000523878927   -0.0900
      3 H3         -8.6961    1.0996   63.6631 H       1  ZINC000523878927    0.0700
      4 C4         -7.1479    0.6131   62.2465 C.3     1  ZINC000523878927   -0.1200
      5 C5         -6.8918    0.7662   60.7459 C.3     1  ZINC000523878927   -0.1200
      6 C6         -7.9827    0.0308   59.9646 C.3     1  ZINC000523878927   -0.1100
      7 C7         -9.3484    0.6264   60.3123 C.3     1  ZINC000523878927   -0.1000
      8 H8         -9.3619    1.6835   60.0474 H       1  ZINC000523878927    0.0800
      9 C9        -10.4392   -0.1091   59.5312 C.3     1  ZINC000523878927    0.1400
     10 N10       -10.2146    0.0680   58.0943 N.am    1  ZINC000523878927   -0.7400
     11 C11       -11.2157   -0.1638   57.2222 C.2     1  ZINC000523878927    0.7200
     12 O12       -12.3048   -0.5211   57.6278 O.2     1  ZINC000523878927   -0.5800
     13 N13       -11.0095    0.0006   55.9005 N.am    1  ZINC000523878927   -0.6400
     14 C14       -12.0113   -0.2168   54.8410 C.3     1  ZINC000523878927    0.1000
     15 C15       -11.5328    0.6599   53.6569 C.3     1  ZINC000523878927   -0.1400
     16 C16        -9.9924    0.5015   53.7546 C.3     1  ZINC000523878927    0.1500
     17 H17        -9.6675   -0.4173   53.2666 H       1  ZINC000523878927    0.1100
     18 N18        -9.3141    1.6627   53.1733 N.am    1  ZINC000523878927   -0.7300
     19 C19        -7.9709    1.6728   53.0626 C.2     1  ZINC000523878927    0.7100
     20 O20        -7.3222    0.7176   53.4437 O.2     1  ZINC000523878927   -0.5700
     21 N21        -7.3467    2.7418   52.5293 N.am    1  ZINC000523878927   -0.6800
     22 C22        -5.9509    2.7523   52.4143 C.ar    1  ZINC000523878927    0.1500
     23 C23        -5.1973    3.6356   53.1757 C.ar    1  ZINC000523878927   -0.1200
     24 C24        -3.8210    3.6441   53.0612 C.ar    1  ZINC000523878927   -0.1300
     25 C25        -3.1926    2.7729   52.1875 C.ar    1  ZINC000523878927    0.0800
     26 F26        -1.8462    2.7830   52.0766 F       1  ZINC000523878927   -0.1400
     27 C27        -3.9423    1.8909   51.4277 C.ar    1  ZINC000523878927   -0.1300
     28 C28        -5.3186    1.8756   51.5431 C.ar    1  ZINC000523878927   -0.0900
     29 C29        -9.7500    0.4324   55.2771 C.3     1  ZINC000523878927    0.1200
     30 C30        -9.6045    0.4733   61.8130 C.3     1  ZINC000523878927   -0.1100
     31 H31        -9.5056    3.1169   62.4699 H       1  ZINC000523878927    0.0500
     32 H32        -7.7555    3.2166   62.7788 H       1  ZINC000523878927    0.0500
     33 H33        -8.3501    2.8017   61.1533 H       1  ZINC000523878927    0.0600
     34 H34        -6.3708    1.1371   62.8029 H       1  ZINC000523878927    0.0600
     35 H35        -7.1345   -0.4441   62.5113 H       1  ZINC000523878927    0.0600
     36 H36        -6.9053    1.8234   60.4809 H       1  ZINC000523878927    0.0700
     37 H37        -5.9188    0.3419   60.4982 H       1  ZINC000523878927    0.0600
     38 H38        -7.8002    0.1399   58.8955 H       1  ZINC000523878927    0.0600
     39 H39        -7.9692   -1.0265   60.2295 H       1  ZINC000523878927    0.0600
     40 H40       -10.4081   -1.1708   59.7757 H       1  ZINC000523878927    0.0700
     41 H41       -11.4146    0.2971   59.7992 H       1  ZINC000523878927    0.0700
     42 H42        -9.3454    0.3519   57.7707 H       1  ZINC000523878927    0.3900
     43 H43       -12.0342   -1.2671   54.5504 H       1  ZINC000523878927    0.0800
     44 H44       -12.9962    0.1059   55.1783 H       1  ZINC000523878927    0.0800
     45 H45       -11.9059    0.2731   52.7086 H       1  ZINC000523878927    0.1000
     46 H46       -11.8282    1.6997   53.7963 H       1  ZINC000523878927    0.0800
     47 H47        -9.8316    2.4241   52.8681 H       1  ZINC000523878927    0.4000
     48 H48        -7.8643    3.5037   52.2252 H       1  ZINC000523878927    0.4100
     49 H49        -5.6872    4.3158   53.8568 H       1  ZINC000523878927    0.1400
     50 H50        -3.2345    4.3311   53.6532 H       1  ZINC000523878927    0.1400
     51 H51        -3.4503    1.2120   50.7467 H       1  ZINC000523878927    0.1400
     52 H52        -5.9029    1.1872   50.9505 H       1  ZINC000523878927    0.1500
     53 H53        -9.4630    1.4150   55.6516 H       1  ZINC000523878927    0.0700
     54 H54        -8.9664   -0.2931   55.4950 H       1  ZINC000523878927    0.0800
     55 H55        -9.5911   -0.5840   62.0778 H       1  ZINC000523878927    0.0700
     56 H56       -10.5776    0.8975   62.0606 H       1  ZINC000523878927    0.0700
@<TRIPOS>BOND
     1     1     2    1
     2     1    31    1
     3     1    32    1
     4     1    33    1
     5     2     3    1
     6     2    30    1
     7     2     4    1
     8     4     5    1
     9     4    34    1
    10     4    35    1
    11     5     6    1
    12     5    36    1
    13     5    37    1
    14     6     7    1
    15     6    38    1
    16     6    39    1
    17     7     8    1
    18     7     9    1
    19     7    30    1
    20     9    10    1
    21     9    40    1
    22     9    41    1
    23    10    11   am
    24    10    42    1
    25    11    12    2
    26    11    13   am
    27    13    29    1
    28    13    14    1
    29    14    15    1
    30    14    43    1
    31    14    44    1
    32    15    16    1
    33    15    45    1
    34    15    46    1
    35    16    17    1
    36    16    18    1
    37    16    29    1
    38    18    19   am
    39    18    47    1
    40    19    20    2
    41    19    21   am
    42    21    22    1
    43    21    48    1
    44    22    28   ar
    45    22    23   ar
    46    23    24   ar
    47    23    49    1
    48    24    25   ar
    49    24    50    1
    50    25    26    1
    51    25    27   ar
    52    27    28   ar
    53    27    51    1
    54    28    52    1
    55    29    53    1
    56    29    54    1
    57    30    55    1
    58    30    56    1
@<TRIPOS>SUBSTRUCTURE
     1 ZINC000523878927        1 TEMP              0 ****  ****    0 ROOT


##########                                Name:    ZINC001757264545
##########                DOCK_Rotatable_Bonds:                  11
##########                         Heavy_Atoms:                  25
##########                    Molecular_Weight:             344.497
##########                DOCK_Rotatable_Bonds:                  11
##########                       Formal_Charge:          0.00999946
##########                     HBond_Acceptors:                   4
##########                        HBond_Donors:                   2
##########                         Heavy_Atoms:                  25
##########                          Grid_Score:          -27.595945
##########                     Grid_vdw_energy:          -26.180939
##########                      Grid_es_energy:           -1.415007
##########           Internal_energy_repulsive:            8.182445

@<TRIPOS>MOLECULE
ZINC001757264545
 57 57 1 0 0
SMALL
USER_CHARGES


@<TRIPOS>ATOM
      1 C1         -8.7077   -0.6595   65.4143 C.1     1  ZINC001757264545   -0.2100
      2 C2         -8.4487    0.2882   64.7716 C.1     1  ZINC001757264545   -0.1900
      3 C3         -8.1239    1.4765   63.9658 C.3     1  ZINC001757264545   -0.0100
      4 C4         -7.8427    1.0527   62.5227 C.3     1  ZINC001757264545   -0.1200
      5 C5         -7.4675    2.2828   61.6940 C.3     1  ZINC001757264545   -0.1200
      6 C6         -7.1866    1.8592   60.2509 C.3     1  ZINC001757264545   -0.1000
      7 C7         -6.7696    3.0826   59.4322 C.3     1  ZINC001757264545   -0.1400
      8 C8         -6.2970    2.6392   58.0716 C.2     1  ZINC001757264545    0.5100
      9 O9         -5.5492    1.6898   57.9691 O.2     1  ZINC001757264545   -0.5400
     10 N10        -6.7052    3.2978   56.9687 N.am    1  ZINC001757264545   -0.7300
     11 C11        -6.2472    2.8657   55.6461 C.3     1  ZINC001757264545    0.1400
     12 H12        -5.5125    2.0683   55.7584 H       1  ZINC001757264545    0.1000
     13 C13        -5.6081    4.0486   54.9160 C.3     1  ZINC001757264545   -0.1300
     14 C14        -5.1297    3.5974   53.5345 C.3     1  ZINC001757264545   -0.1200
     15 C15        -6.3216    3.0822   52.7252 C.3     1  ZINC001757264545   -0.1200
     16 C16        -6.9607    1.8992   53.4553 C.3     1  ZINC001757264545   -0.1300
     17 C17        -7.4390    2.3506   54.8367 C.3     1  ZINC001757264545    0.1400
     18 H18        -8.1736    3.1479   54.7242 H       1  ZINC001757264545    0.1000
     19 N19        -8.0509    1.2178   55.5357 N.am    1  ZINC001757264545   -0.7200
     20 C20        -9.3620    1.2465   55.8468 C.2     1  ZINC001757264545    0.6400
     21 O21       -10.0374    2.2121   55.5460 O.2     1  ZINC001757264545   -0.5200
     22 C22        -9.9598    0.1399   56.5316 C.1     1  ZINC001757264545   -0.2300
     23 C23       -10.4498   -0.7672   57.0931 C.1     1  ZINC001757264545   -0.0500
     24 C24       -11.0643   -1.9046   57.7970 C.3     1  ZINC001757264545    0.0300
     25 C25       -12.4453   -2.1868   57.2020 C.3     1  ZINC001757264545   -0.1400
     26 C26       -10.1781   -3.1416   57.6383 C.3     1  ZINC001757264545   -0.1400
     27 C27       -11.2082   -1.5675   59.2825 C.3     1  ZINC001757264545   -0.1400
     28 H28        -8.9393   -1.5071   65.9891 H       1  ZINC001757264545    0.2200
     29 H29        -7.2421    1.9659   64.3791 H       1  ZINC001757264545    0.0900
     30 H30        -8.9657    2.1688   63.9838 H       1  ZINC001757264545    0.0900
     31 H31        -8.7337    0.5881   62.1004 H       1  ZINC001757264545    0.0700
     32 H32        -7.0189    0.3393   62.5076 H       1  ZINC001757264545    0.0700
     33 H33        -6.5764    2.7474   62.1162 H       1  ZINC001757264545    0.0700
     34 H34        -8.2913    2.9964   61.7094 H       1  ZINC001757264545    0.0700
     35 H35        -8.0868    1.4223   59.8186 H       1  ZINC001757264545    0.0700
     36 H36        -6.3832    1.1226   60.2383 H       1  ZINC001757264545    0.0700
     37 H37        -5.9619    3.6049   59.9449 H       1  ZINC001757264545    0.0900
     38 H38        -7.6221    3.7525   59.3202 H       1  ZINC001757264545    0.0900
     39 H39        -7.3023    4.0578   57.0509 H       1  ZINC001757264545    0.4000
     40 H40        -6.3427    4.8460   54.8036 H       1  ZINC001757264545    0.0700
     41 H41        -4.7589    4.4156   55.4925 H       1  ZINC001757264545    0.0800
     42 H42        -4.6744    4.4402   53.0144 H       1  ZINC001757264545    0.0700
     43 H43        -4.3951    2.8000   53.6470 H       1  ZINC001757264545    0.0700
     44 H44        -5.9808    2.7608   51.7411 H       1  ZINC001757264545    0.0700
     45 H45        -7.0562    3.8796   52.6128 H       1  ZINC001757264545    0.0700
     46 H46        -6.2260    1.1018   53.5677 H       1  ZINC001757264545    0.0700
     47 H47        -7.8098    1.5323   52.8787 H       1  ZINC001757264545    0.0800
     48 H48        -7.5125    0.4471   55.7747 H       1  ZINC001757264545    0.4000
     49 H49       -12.3428   -2.4270   56.1437 H       1  ZINC001757264545    0.0600
     50 H50       -12.9003   -3.0290   57.7233 H       1  ZINC001757264545    0.0700
     51 H51       -13.0766   -1.3055   57.3151 H       1  ZINC001757264545    0.0600
     52 H52        -9.1943   -2.9406   58.0622 H       1  ZINC001757264545    0.0600
     53 H53       -10.6330   -3.9839   58.1596 H       1  ZINC001757264545    0.0700
     54 H54       -10.0756   -3.3818   56.5800 H       1  ZINC001757264545    0.0600
     55 H55       -11.8396   -0.6861   59.3956 H       1  ZINC001757264545    0.0600
     56 H56       -11.6632   -2.4098   59.8038 H       1  ZINC001757264545    0.0700
     57 H57       -10.2243   -1.3664   59.7063 H       1  ZINC001757264545    0.0600
@<TRIPOS>BOND
     1     1     2    3
     2     1    28    1
     3     2     3    1
     4     3     4    1
     5     3    29    1
     6     3    30    1
     7     4     5    1
     8     4    31    1
     9     4    32    1
    10     5     6    1
    11     5    33    1
    12     5    34    1
    13     6     7    1
    14     6    35    1
    15     6    36    1
    16     7     8    1
    17     7    37    1
    18     7    38    1
    19     8     9    2
    20     8    10   am
    21    10    11    1
    22    10    39    1
    23    11    12    1
    24    11    17    1
    25    11    13    1
    26    13    14    1
    27    13    40    1
    28    13    41    1
    29    14    15    1
    30    14    42    1
    31    14    43    1
    32    15    16    1
    33    15    44    1
    34    15    45    1
    35    16    17    1
    36    16    46    1
    37    16    47    1
    38    17    18    1
    39    17    19    1
    40    19    20   am
    41    19    48    1
    42    20    21    2
    43    20    22    1
    44    22    23    3
    45    23    24    1
    46    24    25    1
    47    24    26    1
    48    24    27    1
    49    25    49    1
    50    25    50    1
    51    25    51    1
    52    26    52    1
    53    26    53    1
    54    26    54    1
    55    27    55    1
    56    27    56    1
    57    27    57    1
@<TRIPOS>SUBSTRUCTURE
     1 ZINC001757264545        1 TEMP              0 ****  ****    0 ROOT


##########                                Name:    ZINC000618094467
##########                DOCK_Rotatable_Bonds:                   5
##########                         Heavy_Atoms:                  27
##########                    Molecular_Weight:             370.492
##########                DOCK_Rotatable_Bonds:                   5
##########                       Formal_Charge:                0.03
##########                     HBond_Acceptors:                   5
##########                        HBond_Donors:                   0
##########                         Heavy_Atoms:                  27
##########                          Grid_Score:          -27.593046
##########                     Grid_vdw_energy:          -25.703615
##########                      Grid_es_energy:           -1.889431
##########           Internal_energy_repulsive:           74.592064

@<TRIPOS>MOLECULE
ZINC000618094467
 57 59 1 0 0
SMALL
USER_CHARGES


@<TRIPOS>ATOM
      1 C1        -10.6039    0.8519   61.3984 C.3     1  ZINC000618094467   -0.1500
      2 C2         -9.2890    0.1229   61.1150 C.3     1  ZINC000618094467   -0.1000
      3 C3         -8.7826    0.5067   59.7232 C.3     1  ZINC000618094467   -0.1100
      4 H4         -8.8211    1.5900   59.6086 H       1  ZINC000618094467    0.1000
      5 C5         -7.3393    0.0273   59.5555 C.3     1  ZINC000618094467   -0.1500
      6 C6         -9.6518   -0.1406   58.6762 C.2     1  ZINC000618094467    0.5200
      7 O7        -10.2722   -1.1483   58.9415 O.2     1  ZINC000618094467   -0.5000
      8 N8         -9.7399    0.4004   57.4449 N.am    1  ZINC000618094467   -0.6100
      9 C9         -9.0025    1.6185   57.0926 C.3     1  ZINC000618094467    0.1400
     10 C10        -8.3653    1.4519   55.7359 C.ar    1  ZINC000618094467   -0.1000
     11 C11        -7.4305    2.3979   55.3390 C.ar    1  ZINC000618094467   -0.1100
     12 C12        -6.8207    2.3050   54.1045 C.ar    1  ZINC000618094467   -0.1200
     13 C13        -7.1445    1.2622   53.2570 C.ar    1  ZINC000618094467   -0.1100
     14 C14        -8.0704    0.3191   53.6521 C.ar    1  ZINC000618094467   -0.1200
     15 C15        -8.6816    0.4068   54.8968 C.ar    1  ZINC000618094467   -0.0600
     16 C16        -9.6616   -0.6738   55.2711 C.3     1  ZINC000618094467   -0.0800
     17 C17       -10.5751   -0.2109   56.3980 C.3     1  ZINC000618094467    0.1200
     18 H18       -11.2826    0.5269   56.0196 H       1  ZINC000618094467    0.1000
     19 C19       -11.3229   -1.3902   56.9649 C.2     1  ZINC000618094467    0.5500
     20 O20       -10.8800   -2.5111   56.8296 O.2     1  ZINC000618094467   -0.5200
     21 N21       -12.4839   -1.1991   57.6222 N.am    1  ZINC000618094467   -0.6100
     22 C22       -13.0310    0.1539   57.7857 C.3     1  ZINC000618094467    0.1200
     23 C23       -14.4381    0.1945   57.1763 C.3     1  ZINC000618094467   -0.1600
     24 H24       -14.9322    1.1252   57.4554 H       1  ZINC000618094467    0.1100
     25 C25       -14.3424    0.0993   55.6522 C.3     1  ZINC000618094467   -0.1400
     26 C26       -15.2254   -0.9809   57.7124 C.2     1  ZINC000618094467    0.3700
     27 O27       -16.3044   -0.8183   58.2298 O.2     1  ZINC000618094467   -0.4400
     28 C28       -14.6285   -2.3652   57.5841 C.3     1  ZINC000618094467   -0.1600
     29 H29       -14.5761   -2.6463   56.5323 H       1  ZINC000618094467    0.1100
     30 C30       -15.4943   -3.3721   58.3438 C.3     1  ZINC000618094467   -0.1400
     31 C31       -13.2196   -2.3422   58.1780 C.3     1  ZINC000618094467    0.1400
     32 H32       -11.3450    0.5681   60.6511 H       1  ZINC000618094467    0.0500
     33 H33       -10.9646    0.5783   62.3899 H       1  ZINC000618094467    0.0600
     34 H34       -10.4389    1.9285   61.3559 H       1  ZINC000618094467    0.0600
     35 H35        -8.5479    0.4067   61.8623 H       1  ZINC000618094467    0.0700
     36 H36        -9.4539   -0.9537   61.1575 H       1  ZINC000618094467    0.0700
     37 H37        -7.2770   -1.0319   59.8051 H       1  ZINC000618094467    0.0700
     38 H38        -7.0248    0.1763   58.5225 H       1  ZINC000618094467    0.0700
     39 H39        -6.6881    0.5960   60.2192 H       1  ZINC000618094467    0.0700
     40 H40        -9.6896    2.4644   57.0691 H       1  ZINC000618094467    0.0900
     41 H41        -8.2278    1.8018   57.8372 H       1  ZINC000618094467    0.1100
     42 H42        -7.1789    3.2134   56.0009 H       1  ZINC000618094467    0.1300
     43 H43        -6.0936    3.0439   53.8018 H       1  ZINC000618094467    0.1300
     44 H44        -6.6740    1.1862   52.2878 H       1  ZINC000618094467    0.1200
     45 H45        -8.3227   -0.4944   52.9881 H       1  ZINC000618094467    0.1200
     46 H46       -10.2652   -0.9278   54.3997 H       1  ZINC000618094467    0.0900
     47 H47        -9.1133   -1.5579   55.5966 H       1  ZINC000618094467    0.1000
     48 H48       -13.0847    0.4007   58.8459 H       1  ZINC000618094467    0.0700
     49 H49       -12.3901    0.8716   57.2733 H       1  ZINC000618094467    0.0900
     50 H50       -13.9351   -0.8727   55.3738 H       1  ZINC000618094467    0.0600
     51 H51       -15.3354    0.2150   55.2179 H       1  ZINC000618094467    0.0600
     52 H52       -13.6886    0.8877   55.2792 H       1  ZINC000618094467    0.0700
     53 H53       -16.5014   -3.3727   57.9268 H       1  ZINC000618094467    0.0700
     54 H54       -15.0614   -4.3679   58.2492 H       1  ZINC000618094467    0.0700
     55 H55       -15.5373   -3.0930   59.3966 H       1  ZINC000618094467    0.0600
     56 H56       -12.7020   -3.2680   57.9268 H       1  ZINC000618094467    0.1100
     57 H57       -13.2813   -2.2380   59.2612 H       1  ZINC000618094467    0.0700
@<TRIPOS>BOND
     1     1     2    1
     2     1    32    1
     3     1    33    1
     4     1    34    1
     5     2     3    1
     6     2    35    1
     7     2    36    1
     8     3     4    1
     9     3     5    1
    10     3     6    1
    11     5    37    1
    12     5    38    1
    13     5    39    1
    14     6     7    2
    15     6     8   am
    16     8    17    1
    17     8     9    1
    18     9    10    1
    19     9    40    1
    20     9    41    1
    21    10    15   ar
    22    10    11   ar
    23    11    12   ar
    24    11    42    1
    25    12    13   ar
    26    12    43    1
    27    13    14   ar
    28    13    44    1
    29    14    15   ar
    30    14    45    1
    31    15    16    1
    32    16    17    1
    33    16    46    1
    34    16    47    1
    35    17    18    1
    36    17    19    1
    37    19    20    2
    38    19    21   am
    39    21    31    1
    40    21    22    1
    41    22    23    1
    42    22    48    1
    43    22    49    1
    44    23    24    1
    45    23    25    1
    46    23    26    1
    47    25    50    1
    48    25    51    1
    49    25    52    1
    50    26    27    2
    51    26    28    1
    52    28    29    1
    53    28    30    1
    54    28    31    1
    55    30    53    1
    56    30    54    1
    57    30    55    1
    58    31    56    1
    59    31    57    1
@<TRIPOS>SUBSTRUCTURE
     1 ZINC000618094467        1 TEMP              0 ****  ****    0 ROOT


##########                                Name:    ZINC000549381790
##########                DOCK_Rotatable_Bonds:                   7
##########                         Heavy_Atoms:                  23
##########                    Molecular_Weight:             337.846
##########                DOCK_Rotatable_Bonds:                   7
##########                       Formal_Charge:           0.0300006
##########                     HBond_Acceptors:                   5
##########                        HBond_Donors:                   0
##########                         Heavy_Atoms:                  23
##########                          Grid_Score:          -27.577579
##########                     Grid_vdw_energy:          -27.312757
##########                      Grid_es_energy:           -0.264822
##########           Internal_energy_repulsive:           88.213211

@<TRIPOS>MOLECULE
ZINC000549381790
 47 49 1 0 0
SMALL
USER_CHARGES


@<TRIPOS>ATOM
      1 C1         -5.2790    0.9172   52.3459 C.3     1  ZINC000549381790   -0.1400
      2 C2         -5.7432    2.1601   53.1077 C.3     1  ZINC000549381790    0.1500
      3 H3         -5.1994    2.2359   54.0493 H       1  ZINC000549381790    0.0700
      4 C4         -5.4805    3.4094   52.2610 C.3     1  ZINC000549381790   -0.1300
      5 C5         -6.0718    4.6323   52.9660 C.3     1  ZINC000549381790   -0.1200
      6 C6         -7.5851    4.4571   53.1117 C.3     1  ZINC000549381790   -0.1400
      7 C7         -7.8717    3.2197   53.9681 C.3     1  ZINC000549381790    0.1000
      8 N8         -7.1841    2.0627   53.3776 N.am    1  ZINC000549381790   -0.6100
      9 C9         -7.8635    0.9362   53.0848 C.2     1  ZINC000549381790    0.5200
     10 O10        -7.2847   -0.0117   52.5976 O.2     1  ZINC000549381790   -0.5000
     11 C11        -9.3425    0.8545   53.3626 C.3     1  ZINC000549381790    0.0400
     12 O12        -9.7533   -0.5143   53.3566 O.3     1  ZINC000549381790   -0.2800
     13 C13       -10.4988   -0.9397   54.4114 C.ar    1  ZINC000549381790    0.1100
     14 C14       -11.8349   -0.5805   54.5056 C.ar    1  ZINC000549381790   -0.1700
     15 C15       -12.5930   -1.0129   55.5769 C.ar    1  ZINC000549381790   -0.1600
     16 C16       -12.0179   -1.8056   56.5584 C.ar    1  ZINC000549381790    0.1100
     17 O17       -12.7643   -2.2310   57.6128 O.3     1  ZINC000549381790   -0.3000
     18 C18       -13.6826   -3.2983   57.3689 C.3     1  ZINC000549381790    0.0900
     19 C19       -14.7069   -3.3591   58.5039 C.3     1  ZINC000549381790   -0.1600
     20 C20       -14.6143   -2.2924   59.5968 C.3     1  ZINC000549381790   -0.1700
     21 C21       -15.7509   -2.2428   58.5738 C.3     1  ZINC000549381790   -0.1700
     22 C22       -10.6804   -2.1653   56.4644 C.ar    1  ZINC000549381790   -0.0300
     23 Cl23       -9.9601   -3.1583   57.6928 Cl      1  ZINC000549381790   -0.0400
     24 C24        -9.9241   -1.7375   55.3898 C.ar    1  ZINC000549381790   -0.1000
     25 H25        -5.8924    0.7872   51.4543 H       1  ZINC000549381790    0.0600
     26 H26        -4.2356    1.0382   52.0546 H       1  ZINC000549381790    0.0500
     27 H27        -5.3781    0.0405   52.9861 H       1  ZINC000549381790    0.0800
     28 H28        -4.4061    3.5452   52.1366 H       1  ZINC000549381790    0.0800
     29 H29        -5.9483    3.2914   51.2836 H       1  ZINC000549381790    0.0700
     30 H30        -5.6213    4.7353   53.9532 H       1  ZINC000549381790    0.0700
     31 H31        -5.8646    5.5261   52.3775 H       1  ZINC000549381790    0.0700
     32 H32        -8.0087    5.3386   53.5929 H       1  ZINC000549381790    0.0800
     33 H33        -8.0331    4.3292   52.1263 H       1  ZINC000549381790    0.0700
     34 H34        -7.5035    3.3831   54.9809 H       1  ZINC000549381790    0.0800
     35 H35        -8.9453    3.0332   53.9931 H       1  ZINC000549381790    0.0800
     36 H36        -9.5537    1.2929   54.3379 H       1  ZINC000549381790    0.0900
     37 H37        -9.8875    1.4009   52.5930 H       1  ZINC000549381790    0.0900
     38 H38       -12.2830    0.0374   53.7417 H       1  ZINC000549381790    0.1400
     39 H39       -13.6335   -0.7330   55.6500 H       1  ZINC000549381790    0.1400
     40 H40       -14.1974   -3.1260   56.4238 H       1  ZINC000549381790    0.0700
     41 H41       -13.1386   -4.2416   57.3197 H       1  ZINC000549381790    0.0700
     42 H42       -15.0194   -4.3599   58.8020 H       1  ZINC000549381790    0.1200
     43 H43       -14.8658   -2.5914   60.6144 H       1  ZINC000549381790    0.1000
     44 H44       -13.8237   -1.5475   59.5073 H       1  ZINC000549381790    0.1000
     45 H45       -15.7081   -1.4652   57.8112 H       1  ZINC000549381790    0.1000
     46 H46       -16.7501   -2.5091   58.9183 H       1  ZINC000549381790    0.1000
     47 H47        -8.8835   -2.0171   55.3163 H       1  ZINC000549381790    0.1500
@<TRIPOS>BOND
     1     1     2    1
     2     1    25    1
     3     1    26    1
     4     1    27    1
     5     2     3    1
     6     2     8    1
     7     2     4    1
     8     4     5    1
     9     4    28    1
    10     4    29    1
    11     5     6    1
    12     5    30    1
    13     5    31    1
    14     6     7    1
    15     6    32    1
    16     6    33    1
    17     7     8    1
    18     7    34    1
    19     7    35    1
    20     8     9   am
    21     9    10    2
    22     9    11    1
    23    11    12    1
    24    11    36    1
    25    11    37    1
    26    12    13    1
    27    13    24   ar
    28    13    14   ar
    29    14    15   ar
    30    14    38    1
    31    15    16   ar
    32    15    39    1
    33    16    17    1
    34    16    22   ar
    35    17    18    1
    36    18    19    1
    37    18    40    1
    38    18    41    1
    39    19    21    1
    40    19    20    1
    41    19    42    1
    42    20    21    1
    43    20    43    1
    44    20    44    1
    45    21    45    1
    46    21    46    1
    47    22    23    1
    48    22    24   ar
    49    24    47    1
@<TRIPOS>SUBSTRUCTURE
     1 ZINC000549381790        1 TEMP              0 ****  ****    0 ROOT


##########                                Name:    ZINC001207290212
##########                DOCK_Rotatable_Bonds:                   8
##########                         Heavy_Atoms:                  23
##########                    Molecular_Weight:             344.435
##########                DOCK_Rotatable_Bonds:                   8
##########                       Formal_Charge:               -0.03
##########                     HBond_Acceptors:                   9
##########                        HBond_Donors:                   2
##########                         Heavy_Atoms:                  23
##########                          Grid_Score:          -27.568573
##########                     Grid_vdw_energy:          -24.283997
##########                      Grid_es_energy:           -3.284575
##########           Internal_energy_repulsive:            5.115900

@<TRIPOS>MOLECULE
ZINC001207290212
 47 48 1 0 0
SMALL
USER_CHARGES


@<TRIPOS>ATOM
      1 C1        -16.4121   -1.7167   55.4134 C.3     1  ZINC001207290212   -0.1500
      2 C2        -16.2962   -3.0217   56.2039 C.3     1  ZINC001207290212   -0.6300
      3 S3        -15.8127   -2.6525   57.9128 S.o2    1  ZINC001207290212    2.6100
      4 O4        -16.7059   -1.7109   58.4915 O.2     1  ZINC001207290212   -0.9500
      5 O5        -15.4595   -3.8453   58.5999 O.2     1  ZINC001207290212   -0.9500
      6 N6        -14.3849   -1.8261   57.7689 N.am    1  ZINC001207290212   -1.1100
      7 C7        -13.6860   -1.3571   58.9680 C.3     1  ZINC001207290212    0.0900
      8 C8        -12.2096   -1.2578   58.6823 C.2     1  ZINC001207290212    0.5100
      9 O9        -11.6448   -2.1534   58.0907 O.2     1  ZINC001207290212   -0.5300
     10 N10       -11.5169   -0.1739   59.0843 N.am    1  ZINC001207290212   -0.7200
     11 C11       -10.0821   -0.0766   58.8051 C.3     1  ZINC001207290212    0.1400
     12 H12        -9.7741   -0.8733   58.1280 H       1  ZINC001207290212    0.1000
     13 C13        -9.2764   -0.1479   60.1156 C.3     1  ZINC001207290212    0.0200
     14 N14        -8.5541    1.1356   60.2513 N.3     1  ZINC001207290212   -0.5100
     15 C15        -7.2479    0.9392   60.8940 C.3     1  ZINC001207290212    0.1300
     16 C16        -7.4313    0.8486   62.3871 C.2     1  ZINC001207290212    0.0000
     17 C17        -6.8305   -0.0288   63.2077 C.2     1  ZINC001207290212   -0.0700
     18 O18        -7.2682    0.2311   64.4553 O.3     1  ZINC001207290212   -0.2000
     19 C19        -8.1257    1.2579   64.3817 C.2     1  ZINC001207290212    0.1900
     20 C20        -8.8540    1.8783   65.5460 C.3     1  ZINC001207290212   -0.0600
     21 N21        -8.2214    1.6354   63.1388 N.2     1  ZINC001207290212   -0.4700
     22 C22        -8.3946    1.6584   58.8702 C.3     1  ZINC001207290212    0.0400
     23 C23        -9.7462    1.3044   58.1967 C.3     1  ZINC001207290212   -0.1000
     24 H24       -10.5107    2.0361   58.4581 H       1  ZINC001207290212    0.0900
     25 C25        -9.5861    1.2104   56.6781 C.3     1  ZINC001207290212   -0.1400
     26 H26       -17.1659   -1.0784   55.8745 H       1  ZINC001207290212    0.0700
     27 H27       -15.4505   -1.2037   55.4162 H       1  ZINC001207290212    0.0700
     28 H28       -16.7026   -1.9386   54.3866 H       1  ZINC001207290212    0.0800
     29 H29       -17.2579   -3.5347   56.2011 H       1  ZINC001207290212    0.1300
     30 H30       -15.5425   -3.6600   55.7428 H       1  ZINC001207290212    0.1300
     31 H31       -14.0113   -1.6525   56.8907 H       1  ZINC001207290212    0.4300
     32 H32       -14.0681   -0.3762   59.2509 H       1  ZINC001207290212    0.1000
     33 H33       -13.8517   -2.0608   59.7837 H       1  ZINC001207290212    0.1100
     34 H34       -11.9684    0.5418   59.5586 H       1  ZINC001207290212    0.4100
     35 H35        -9.9522   -0.2847   60.9599 H       1  ZINC001207290212    0.0800
     36 H36        -8.5642   -0.9717   60.0693 H       1  ZINC001207290212    0.0500
     37 H37        -6.7972    0.0172   60.5267 H       1  ZINC001207290212    0.0600
     38 H38        -6.5968    1.7810   60.6583 H       1  ZINC001207290212    0.1000
     39 H39        -6.1288   -0.7984   62.9214 H       1  ZINC001207290212    0.2100
     40 H40        -8.5765    1.3620   66.4650 H       1  ZINC001207290212    0.0900
     41 H41        -8.5829    2.9312   65.6249 H       1  ZINC001207290212    0.1000
     42 H42        -9.9293    1.7907   65.3905 H       1  ZINC001207290212    0.1000
     43 H43        -8.2416    2.7375   58.8826 H       1  ZINC001207290212    0.0900
     44 H44        -7.5703    1.1578   58.3622 H       1  ZINC001207290212    0.0500
     45 H45        -8.8400    0.4531   56.4375 H       1  ZINC001207290212    0.0600
     46 H46       -10.5404    0.9359   56.2284 H       1  ZINC001207290212    0.0600
     47 H47        -9.2641    2.1752   56.2863 H       1  ZINC001207290212    0.0600
@<TRIPOS>BOND
     1     1     2    1
     2     1    26    1
     3     1    27    1
     4     1    28    1
     5     2     3    1
     6     2    29    1
     7     2    30    1
     8     3     4    2
     9     3     5    2
    10     3     6   am
    11     6     7    1
    12     6    31    1
    13     7     8    1
    14     7    32    1
    15     7    33    1
    16     8     9    2
    17     8    10   am
    18    10    11    1
    19    10    34    1
    20    11    12    1
    21    11    23    1
    22    11    13    1
    23    13    14    1
    24    13    35    1
    25    13    36    1
    26    14    15    1
    27    14    22    1
    28    15    16    1
    29    15    37    1
    30    15    38    1
    31    16    21    1
    32    16    17    2
    33    17    18    1
    34    17    39    1
    35    18    19    1
    36    19    20    1
    37    19    21    2
    38    20    40    1
    39    20    41    1
    40    20    42    1
    41    22    23    1
    42    22    43    1
    43    22    44    1
    44    23    24    1
    45    23    25    1
    46    25    45    1
    47    25    46    1
    48    25    47    1
@<TRIPOS>SUBSTRUCTURE
     1 ZINC001207290212        1 TEMP              0 ****  ****    0 ROOT


##########                                Name:    ZINC001085817863
##########                DOCK_Rotatable_Bonds:                   7
##########                         Heavy_Atoms:                  24
##########                    Molecular_Weight:             326.442
##########                DOCK_Rotatable_Bonds:                   7
##########                       Formal_Charge:           0.0299998
##########                     HBond_Acceptors:                   5
##########                        HBond_Donors:                   0
##########                         Heavy_Atoms:                  24
##########                          Grid_Score:          -27.552168
##########                     Grid_vdw_energy:          -25.533922
##########                      Grid_es_energy:           -2.018245
##########           Internal_energy_repulsive:           13.269060

@<TRIPOS>MOLECULE
ZINC001085817863
 50 52 1 0 0
SMALL
USER_CHARGES


@<TRIPOS>ATOM
      1 C1        -10.0652    1.8796   57.4622 C.3     1  ZINC001085817863   -0.1400
      2 C2         -9.0171    0.7871   57.2407 C.3     1  ZINC001085817863   -0.0700
      3 C3         -7.6379    1.3818   57.3639 C.2     1  ZINC001085817863    0.1100
      4 C4         -6.8760    1.4069   58.4994 C.2     1  ZINC001085817863   -0.2400
      5 C5         -7.2379    0.8656   59.8203 C.2     1  ZINC001085817863    0.6000
      6 O6         -7.4504   -0.3246   59.9524 O.2     1  ZINC001085817863   -0.5300
      7 N7         -7.3335    1.6893   60.8829 N.am    1  ZINC001085817863   -0.6100
      8 C8         -7.0775    3.1229   60.7239 C.3     1  ZINC001085817863    0.0800
      9 C9         -7.6936    1.1508   62.1969 C.3     1  ZINC001085817863    0.1300
     10 C10        -9.0547    1.7064   62.6203 C.3     1  ZINC001085817863    0.0100
     11 H11        -9.0092    2.7555   62.9128 H       1  ZINC001085817863    0.0800
     12 C12       -10.1788    1.3984   61.6211 C.3     1  ZINC001085817863   -0.1400
     13 C13       -11.0138    1.1821   62.8910 C.3     1  ZINC001085817863    0.0000
     14 N14        -9.7593    0.8544   63.5964 N.3     1  ZINC001085817863   -0.4400
     15 C15        -9.7360    1.4562   64.9362 C.3     1  ZINC001085817863    0.0700
     16 C16        -8.4296    1.1279   65.6118 C.ar    1  ZINC001085817863   -0.1300
     17 C17        -7.4178    2.0732   65.6804 C.ar    1  ZINC001085817863   -0.0700
     18 C18        -6.2329    1.7270   66.3120 C.ar    1  ZINC001085817863   -0.1700
     19 C19        -6.1007    0.4604   66.8483 C.ar    1  ZINC001085817863    0.1000
     20 N20        -7.0847   -0.4138   66.7644 N.ar    1  ZINC001085817863   -0.4800
     21 C21        -8.2270   -0.1176   66.1759 C.ar    1  ZINC001085817863    0.1200
     22 C22        -5.6252    2.0813   58.1356 C.2     1  ZINC001085817863   -0.1900
     23 C23        -5.7331    2.4019   56.8339 C.2     1  ZINC001085817863   -0.0200
     24 N24        -6.9439    1.9734   56.3732 N.pl3   1  ZINC001085817863   -0.4400
     25 C25        -7.4243    2.1423   54.9996 C.3     1  ZINC001085817863    0.0600
     26 H26       -11.0628    1.4496   57.3730 H       1  ZINC001085817863    0.0600
     27 H27        -9.9409    2.3060   58.4575 H       1  ZINC001085817863    0.0500
     28 H28        -9.9385    2.6618   56.7136 H       1  ZINC001085817863    0.0600
     29 H29        -9.1438    0.0051   57.9893 H       1  ZINC001085817863    0.0600
     30 H30        -9.1415    0.3608   56.2453 H       1  ZINC001085817863    0.1100
     31 H31        -7.7642    3.5348   59.9843 H       1  ZINC001085817863    0.0700
     32 H32        -7.2269    3.6267   61.6787 H       1  ZINC001085817863    0.0700
     33 H33        -6.0509    3.2738   60.3900 H       1  ZINC001085817863    0.0600
     34 H34        -7.7460    0.0635   62.1420 H       1  ZINC001085817863    0.0800
     35 H35        -6.9391    1.4416   62.9280 H       1  ZINC001085817863    0.1000
     36 H36       -10.4906    2.2541   61.0224 H       1  ZINC001085817863    0.0800
     37 H37       -10.0180    0.4946   61.0333 H       1  ZINC001085817863    0.1000
     38 H38       -11.4916    2.0909   63.2566 H       1  ZINC001085817863    0.0700
     39 H39       -11.7042    0.3418   62.8188 H       1  ZINC001085817863    0.0800
     40 H40        -9.8390    2.5380   64.8505 H       1  ZINC001085817863    0.0900
     41 H41       -10.5608    1.0584   65.5276 H       1  ZINC001085817863    0.0500
     42 H42        -7.5493    3.0558   65.2518 H       1  ZINC001085817863    0.1300
     43 H43        -5.4233    2.4383   66.3837 H       1  ZINC001085817863    0.1300
     44 H44        -5.1809    0.1829   67.3416 H       1  ZINC001085817863    0.1600
     45 H45        -9.0101   -0.8597   66.1265 H       1  ZINC001085817863    0.1500
     46 H46        -4.7849    2.2810   58.7840 H       1  ZINC001085817863    0.1600
     47 H47        -4.9825    2.9114   56.2481 H       1  ZINC001085817863    0.1600
     48 H48        -7.1257    1.2812   54.4018 H       1  ZINC001085817863    0.0800
     49 H49        -8.5113    2.2233   55.0023 H       1  ZINC001085817863    0.0900
     50 H50        -6.9935    3.0479   54.5727 H       1  ZINC001085817863    0.0900
@<TRIPOS>BOND
     1     1     2    1
     2     1    26    1
     3     1    27    1
     4     1    28    1
     5     2     3    1
     6     2    29    1
     7     2    30    1
     8     3    24    1
     9     3     4    2
    10     4     5    1
    11     4    22    1
    12     5     6    2
    13     5     7   am
    14     7     8    1
    15     7     9    1
    16     8    31    1
    17     8    32    1
    18     8    33    1
    19     9    10    1
    20     9    34    1
    21     9    35    1
    22    10    11    1
    23    10    14    1
    24    10    12    1
    25    12    13    1
    26    12    36    1
    27    12    37    1
    28    13    14    1
    29    13    38    1
    30    13    39    1
    31    14    15    1
    32    15    16    1
    33    15    40    1
    34    15    41    1
    35    16    21   ar
    36    16    17   ar
    37    17    18   ar
    38    17    42    1
    39    18    19   ar
    40    18    43    1
    41    19    20   ar
    42    19    44    1
    43    20    21   ar
    44    21    45    1
    45    22    23    2
    46    22    46    1
    47    23    24    1
    48    23    47    1
    49    24    25    1
    50    25    48    1
    51    25    49    1
    52    25    50    1
@<TRIPOS>SUBSTRUCTURE
     1 ZINC001085817863        1 TEMP              0 ****  ****    0 ROOT


##########                                Name:    ZINC000536173632
##########                DOCK_Rotatable_Bonds:                   7
##########                         Heavy_Atoms:                  29
##########                    Molecular_Weight:             407.389
##########                DOCK_Rotatable_Bonds:                   7
##########                       Formal_Charge:        -2.98023e-07
##########                     HBond_Acceptors:                   8
##########                        HBond_Donors:                   0
##########                         Heavy_Atoms:                  29
##########                          Grid_Score:          -27.542572
##########                     Grid_vdw_energy:          -28.009552
##########                      Grid_es_energy:            0.466980
##########           Internal_energy_repulsive:           18.123615

@<TRIPOS>MOLECULE
ZINC000536173632
 49 51 1 0 0
SMALL
USER_CHARGES


@<TRIPOS>ATOM
      1 C1         -9.7926    1.2334   62.8934 C.3     1  ZINC000536173632    0.0400
      2 O2        -10.9158    0.7465   62.1126 O.3     1  ZINC000536173632   -0.3500
      3 C3        -10.6462   -0.1584   61.1518 C.2     1  ZINC000536173632    0.5100
      4 O4         -9.5039   -0.5297   60.9706 O.2     1  ZINC000536173632   -0.5000
      5 C5        -11.7396   -0.6991   60.3186 C.ar    1  ZINC000536173632   -0.1300
      6 C6        -13.0646   -0.3528   60.5895 C.ar    1  ZINC000536173632   -0.0600
      7 C7        -14.0810   -0.8615   59.8074 C.ar    1  ZINC000536173632   -0.1300
      8 C8        -13.7895   -1.7133   58.7570 C.ar    1  ZINC000536173632   -0.0700
      9 C9        -12.4784   -2.0608   58.4829 C.ar    1  ZINC000536173632   -0.0800
     10 C10       -12.1706   -2.9894   57.3365 C.3     1  ZINC000536173632   -0.1000
     11 C11       -10.8467   -2.6102   56.7245 C.2     1  ZINC000536173632    0.5200
     12 O12        -9.8881   -3.3424   56.8511 O.2     1  ZINC000536173632   -0.5200
     13 N13       -10.7279   -1.4573   56.0365 N.am    1  ZINC000536173632   -0.6200
     14 C14       -11.8767   -0.5529   55.8696 C.3     1  ZINC000536173632    0.0700
     15 C15       -12.0092   -0.2092   54.3816 C.3     1  ZINC000536173632    0.0500
     16 O16       -10.7517    0.2652   53.8943 O.3     1  ZINC000536173632   -0.3700
     17 C17        -9.6965   -0.6968   53.9638 C.3     1  ZINC000536173632    0.1200
     18 H18        -9.9808   -1.5899   53.4074 H       1  ZINC000536173632    0.0800
     19 C19        -8.4416   -0.1113   53.3691 C.ar    1  ZINC000536173632   -0.0900
     20 C20        -7.6523   -0.8756   52.5308 C.ar    1  ZINC000536173632   -0.0600
     21 C21        -6.5011   -0.3385   51.9852 C.ar    1  ZINC000536173632   -0.1200
     22 C22        -6.1398    0.9631   52.2779 C.ar    1  ZINC000536173632   -0.0700
     23 C23        -6.9299    1.7281   53.1158 C.ar    1  ZINC000536173632   -0.1800
     24 C24        -6.5357    3.1471   53.4353 C.3     1  ZINC000536173632    0.5100
     25 F25        -7.0342    3.4972   54.6947 F       1  ZINC000536173632   -0.1800
     26 F26        -5.1408    3.2539   53.4397 F       1  ZINC000536173632   -0.1800
     27 F27        -7.0662    4.0075   52.4681 F       1  ZINC000536173632   -0.1800
     28 C28        -8.0830    1.1925   53.6577 C.ar    1  ZINC000536173632   -0.0500
     29 C29        -9.4441   -1.0628   55.4353 C.3     1  ZINC000536173632    0.0900
     30 C30       -11.4521   -1.5545   59.2529 C.ar    1  ZINC000536173632   -0.0400
     31 H31        -9.3155    0.3971   63.4044 H       1  ZINC000536173632    0.0600
     32 H32        -9.0717    1.7143   62.2322 H       1  ZINC000536173632    0.0600
     33 H33       -10.1475    1.9544   63.6299 H       1  ZINC000536173632    0.1000
     34 H34       -13.2936    0.3115   61.4097 H       1  ZINC000536173632    0.1400
     35 H35       -15.1065   -0.5943   60.0159 H       1  ZINC000536173632    0.1400
     36 H36       -14.5891   -2.1092   58.1482 H       1  ZINC000536173632    0.1300
     37 H37       -12.1212   -4.0148   57.7027 H       1  ZINC000536173632    0.1100
     38 H38       -12.9550   -2.9097   56.5838 H       1  ZINC000536173632    0.1100
     39 H39       -12.7854   -1.0462   56.2148 H       1  ZINC000536173632    0.1000
     40 H40       -11.7125    0.3588   56.4439 H       1  ZINC000536173632    0.0800
     41 H41       -12.3019   -1.1005   53.8267 H       1  ZINC000536173632    0.0600
     42 H42       -12.7652    0.5654   54.2528 H       1  ZINC000536173632    0.1100
     43 H43        -7.9346   -1.8927   52.3021 H       1  ZINC000536173632    0.1400
     44 H44        -5.8839   -0.9360   51.3307 H       1  ZINC000536173632    0.1400
     45 H45        -5.2401    1.3825   51.8524 H       1  ZINC000536173632    0.1400
     46 H46        -8.7003    1.7900   54.3122 H       1  ZINC000536173632    0.1400
     47 H47        -9.0347   -0.2014   55.9628 H       1  ZINC000536173632    0.0800
     48 H48        -8.7429   -1.8955   55.4914 H       1  ZINC000536173632    0.1100
     49 H49       -10.4293   -1.8262   59.0377 H       1  ZINC000536173632    0.1400
@<TRIPOS>BOND
     1     1     2    1
     2     1    31    1
     3     1    32    1
     4     1    33    1
     5     2     3    1
     6     3     4    2
     7     3     5    1
     8     5    30   ar
     9     5     6   ar
    10     6     7   ar
    11     6    34    1
    12     7     8   ar
    13     7    35    1
    14     8     9   ar
    15     8    36    1
    16     9    10    1
    17     9    30   ar
    18    10    11    1
    19    10    37    1
    20    10    38    1
    21    11    12    2
    22    11    13   am
    23    13    29    1
    24    13    14    1
    25    14    15    1
    26    14    39    1
    27    14    40    1
    28    15    16    1
    29    15    41    1
    30    15    42    1
    31    16    17    1
    32    17    18    1
    33    17    19    1
    34    17    29    1
    35    19    28   ar
    36    19    20   ar
    37    20    21   ar
    38    20    43    1
    39    21    22   ar
    40    21    44    1
    41    22    23   ar
    42    22    45    1
    43    23    24    1
    44    23    28   ar
    45    24    25    1
    46    24    26    1
    47    24    27    1
    48    28    46    1
    49    29    47    1
    50    29    48    1
    51    30    49    1
@<TRIPOS>SUBSTRUCTURE
     1 ZINC000536173632        1 TEMP              0 ****  ****    0 ROOT


##########                                Name:    ZINC000277085192
##########                DOCK_Rotatable_Bonds:                   4
##########                         Heavy_Atoms:                  23
##########                    Molecular_Weight:             335.747
##########                DOCK_Rotatable_Bonds:                   4
##########                       Formal_Charge:         5.96046e-08
##########                     HBond_Acceptors:                   8
##########                        HBond_Donors:                   2
##########                         Heavy_Atoms:                  23
##########                          Grid_Score:          -27.534750
##########                     Grid_vdw_energy:          -26.175438
##########                      Grid_es_energy:           -1.359313
##########           Internal_energy_repulsive:            5.060308

@<TRIPOS>MOLECULE
ZINC000277085192
 37 39 1 0 0
SMALL
USER_CHARGES


@<TRIPOS>ATOM
      1 O1         -6.5895    1.2874   57.7816 O.2     1  ZINC000277085192   -0.5000
      2 C2         -7.7734    1.5475   57.7361 C.2     1  ZINC000277085192    0.5000
      3 C3         -8.6479    1.2905   58.9362 C.3     1  ZINC000277085192    0.1100
      4 N4         -7.8234    1.2751   60.1470 N.am    1  ZINC000277085192   -0.6000
      5 C5         -7.6013    2.5200   60.8849 C.3     1  ZINC000277085192    0.1100
      6 C6         -7.5561    2.2239   62.3856 C.3     1  ZINC000277085192   -0.1600
      7 C7         -6.6642    1.0324   62.6290 C.2     1  ZINC000277085192    0.5200
      8 O8         -5.9924    0.9734   63.6365 O.2     1  ZINC000277085192   -0.5000
      9 N9         -6.6148    0.0345   61.7276 N.am    1  ZINC000277085192   -0.6700
     10 C10        -7.2864    0.1182   60.5676 C.2     1  ZINC000277085192    0.7200
     11 O11        -7.4039   -0.8751   59.8772 O.2     1  ZINC000277085192   -0.5500
     12 N12        -8.3055    2.0717   56.6143 N.am    1  ZINC000277085192   -0.6700
     13 C13        -7.4930    2.3105   55.4993 C.ar    1  ZINC000277085192    0.1400
     14 C14        -7.4005    1.3639   54.4960 C.ar    1  ZINC000277085192   -0.0400
     15 C15        -6.5858    1.6025   53.3783 C.ar    1  ZINC000277085192   -0.1700
     16 C16        -5.8744    2.7997   53.2917 C.ar    1  ZINC000277085192   -0.0500
     17 C17        -5.9753    3.7388   54.3010 C.ar    1  ZINC000277085192   -0.0900
     18 C18        -6.7829    3.5032   55.3984 C.ar    1  ZINC000277085192   -0.0300
     19 Cl19       -6.9005    4.6911   56.6589 Cl      1  ZINC000277085192   -0.0500
     20 C20        -5.0777    2.8232   52.0090 C.3     1  ZINC000277085192   -0.0800
     21 C21        -5.3710    1.4966   51.2951 C.3     1  ZINC000277085192   -0.1700
     22 C22        -6.3288    0.7597   52.1993 C.2     1  ZINC000277085192    0.4100
     23 O23        -6.8043   -0.3362   51.9906 O.2     1  ZINC000277085192   -0.4300
     24 H24        -9.3962    2.0790   59.0161 H       1  ZINC000277085192    0.1300
     25 H25        -9.1457    0.3273   58.8233 H       1  ZINC000277085192    0.1200
     26 H26        -6.6553    2.9629   60.5734 H       1  ZINC000277085192    0.0800
     27 H27        -8.4140    3.2158   60.6762 H       1  ZINC000277085192    0.1000
     28 H28        -7.1598    3.0898   62.9160 H       1  ZINC000277085192    0.1300
     29 H29        -8.5619    2.0051   62.7441 H       1  ZINC000277085192    0.1200
     30 H30        -6.0895   -0.7578   61.9203 H       1  ZINC000277085192    0.4300
     31 H31        -9.2515    2.2833   56.5793 H       1  ZINC000277085192    0.4200
     32 H32        -7.9551    0.4403   54.5724 H       1  ZINC000277085192    0.1500
     33 H33        -5.4228    4.6640   54.2301 H       1  ZINC000277085192    0.1500
     34 H34        -5.3939    3.6609   51.3873 H       1  ZINC000277085192    0.1000
     35 H35        -4.0134    2.9018   52.2309 H       1  ZINC000277085192    0.1000
     36 H36        -5.8342    1.6836   50.3263 H       1  ZINC000277085192    0.1100
     37 H37        -4.4521    0.9235   51.1709 H       1  ZINC000277085192    0.1100
@<TRIPOS>BOND
     1     1     2    2
     2     2     3    1
     3     2    12   am
     4     3     4    1
     5     3    24    1
     6     3    25    1
     7     4    10   am
     8     4     5    1
     9     5     6    1
    10     5    26    1
    11     5    27    1
    12     6     7    1
    13     6    28    1
    14     6    29    1
    15     7     8    2
    16     7     9   am
    17     9    10   am
    18     9    30    1
    19    10    11    2
    20    12    13    1
    21    12    31    1
    22    13    18   ar
    23    13    14   ar
    24    14    15   ar
    25    14    32    1
    26    15    22    1
    27    15    16   ar
    28    16    17   ar
    29    16    20    1
    30    17    18   ar
    31    17    33    1
    32    18    19    1
    33    20    21    1
    34    20    34    1
    35    20    35    1
    36    21    22    1
    37    21    36    1
    38    21    37    1
    39    22    23    2
@<TRIPOS>SUBSTRUCTURE
     1 ZINC000277085192        1 TEMP              0 ****  ****    0 ROOT


##########                                Name:    ZINC000986832075
##########                DOCK_Rotatable_Bonds:                   7
##########                         Heavy_Atoms:                  25
##########                    Molecular_Weight:             347.433
##########                DOCK_Rotatable_Bonds:                   7
##########                       Formal_Charge:          -0.0200006
##########                     HBond_Acceptors:                   6
##########                        HBond_Donors:                   1
##########                         Heavy_Atoms:                  25
##########                          Grid_Score:          -27.534445
##########                     Grid_vdw_energy:          -27.821236
##########                      Grid_es_energy:            0.286791
##########           Internal_energy_repulsive:           39.957085

@<TRIPOS>MOLECULE
ZINC000986832075
 51 53 1 0 0
SMALL
USER_CHARGES


@<TRIPOS>ATOM
      1 C1         -7.6959    3.5910   51.6141 C.3     1  ZINC000986832075   -0.1700
      2 C2         -7.0947    2.5518   52.5625 C.3     1  ZINC000986832075    0.1500
      3 H3         -7.1425    1.5664   52.0991 H       1  ZINC000986832075    0.0900
      4 N4         -5.6973    2.8938   52.8392 N.am    1  ZINC000986832075   -0.7200
      5 C5         -4.7200    2.4447   52.0272 C.2     1  ZINC000986832075    0.5600
      6 O6         -4.9979    1.7570   51.0645 O.2     1  ZINC000986832075   -0.5100
      7 C7         -3.3082    2.7888   52.3078 C.ar    1  ZINC000986832075   -0.1300
      8 C8         -2.2762    2.3129   51.4925 C.ar    1  ZINC000986832075   -0.1100
      9 C9         -0.9730    2.6585   51.7908 C.ar    1  ZINC000986832075    0.0900
     10 N10        -0.6942    3.4248   52.8267 N.ar    1  ZINC000986832075   -0.4400
     11 C11        -1.6333    3.8957   53.6219 C.ar    1  ZINC000986832075    0.0700
     12 C12        -2.9682    3.6051   53.3943 C.ar    1  ZINC000986832075    0.1100
     13 F13        -3.9258    4.0914   54.2138 F       1  ZINC000986832075   -0.1000
     14 C14        -7.8855    2.5384   53.8722 C.3     1  ZINC000986832075   -0.1000
     15 C15        -8.4975    1.1518   54.0841 C.3     1  ZINC000986832075   -0.1300
     16 C16        -9.3169    1.1520   55.3785 C.3     1  ZINC000986832075    0.1100
     17 N17        -8.4593    1.6080   56.4808 N.am    1  ZINC000986832075   -0.6100
     18 C18        -8.3250    0.8665   57.5983 C.2     1  ZINC000986832075    0.5200
     19 O19        -8.9150   -0.1881   57.7008 O.2     1  ZINC000986832075   -0.5300
     20 C20        -7.4416    1.3479   58.7203 C.3     1  ZINC000986832075   -0.0800
     21 H21        -6.4862    1.6795   58.3138 H       1  ZINC000986832075    0.0900
     22 C22        -7.2058    0.2051   59.7100 C.3     1  ZINC000986832075   -0.1400
     23 C23        -8.1218    2.5140   59.4405 C.3     1  ZINC000986832075   -0.1400
     24 C24        -8.5675    2.2877   60.8866 C.3     1  ZINC000986832075   -0.1800
     25 C25        -7.3584    3.1767   60.5889 C.3     1  ZINC000986832075   -0.1700
     26 C26        -7.7507    2.8876   56.3418 C.3     1  ZINC000986832075    0.1000
     27 C27        -6.9488    2.8678   55.0367 C.3     1  ZINC000986832075   -0.1300
     28 H28        -7.1325    3.6005   50.6811 H       1  ZINC000986832075    0.0600
     29 H29        -8.7356    3.3365   51.4083 H       1  ZINC000986832075    0.0700
     30 H30        -7.6481    4.5765   52.0775 H       1  ZINC000986832075    0.0600
     31 H31        -5.4755    3.4437   53.6070 H       1  ZINC000986832075    0.4000
     32 H32        -2.4955    1.6842   50.6422 H       1  ZINC000986832075    0.1500
     33 H33        -0.1701    2.2954   51.1663 H       1  ZINC000986832075    0.1700
     34 H34        -1.3588    4.5198   54.4595 H       1  ZINC000986832075    0.1800
     35 H35        -8.6806    3.2825   53.8240 H       1  ZINC000986832075    0.0800
     36 H36        -9.1462    0.9080   53.2428 H       1  ZINC000986832075    0.0700
     37 H37        -7.7018    0.4103   54.1573 H       1  ZINC000986832075    0.0800
     38 H38       -10.1663    1.8269   55.2731 H       1  ZINC000986832075    0.0700
     39 H39        -9.6728    0.1429   55.5858 H       1  ZINC000986832075    0.0900
     40 H40        -8.1652   -0.1855   60.0492 H       1  ZINC000986832075    0.0600
     41 H41        -6.6429   -0.5894   59.2201 H       1  ZINC000986832075    0.0600
     42 H42        -6.6414    0.5760   60.5655 H       1  ZINC000986832075    0.0700
     43 H43        -8.7453    3.1532   58.8154 H       1  ZINC000986832075    0.1100
     44 H44        -9.4846    2.7781   61.2130 H       1  ZINC000986832075    0.1000
     45 H45        -8.3763    1.3082   61.3249 H       1  ZINC000986832075    0.0900
     46 H46        -6.3718    2.7821   60.8314 H       1  ZINC000986832075    0.0900
     47 H47        -7.4801    4.2520   60.7196 H       1  ZINC000986832075    0.1000
     48 H48        -8.4724    3.7039   56.3150 H       1  ZINC000986832075    0.0700
     49 H49        -7.0732    3.0236   57.1849 H       1  ZINC000986832075    0.0900
     50 H50        -6.1679    2.1102   55.1010 H       1  ZINC000986832075    0.0800
     51 H51        -6.4955    3.8456   54.8735 H       1  ZINC000986832075    0.0800
@<TRIPOS>BOND
     1     1     2    1
     2     1    28    1
     3     1    29    1
     4     1    30    1
     5     2     3    1
     6     2     4    1
     7     2    14    1
     8     4     5   am
     9     4    31    1
    10     5     6    2
    11     5     7    1
    12     7    12   ar
    13     7     8   ar
    14     8     9   ar
    15     8    32    1
    16     9    10   ar
    17     9    33    1
    18    10    11   ar
    19    11    12   ar
    20    11    34    1
    21    12    13    1
    22    14    27    1
    23    14    15    1
    24    14    35    1
    25    15    16    1
    26    15    36    1
    27    15    37    1
    28    16    17    1
    29    16    38    1
    30    16    39    1
    31    17    18   am
    32    17    26    1
    33    18    19    2
    34    18    20    1
    35    20    21    1
    36    20    22    1
    37    20    23    1
    38    22    40    1
    39    22    41    1
    40    22    42    1
    41    23    25    1
    42    23    24    1
    43    23    43    1
    44    24    25    1
    45    24    44    1
    46    24    45    1
    47    25    46    1
    48    25    47    1
    49    26    27    1
    50    26    48    1
    51    26    49    1
    52    27    50    1
    53    27    51    1
@<TRIPOS>SUBSTRUCTURE
     1 ZINC000986832075        1 TEMP              0 ****  ****    0 ROOT


##########                                Name:    ZINC000225856071
##########                DOCK_Rotatable_Bonds:                   6
##########                         Heavy_Atoms:                  29
##########                    Molecular_Weight:             409.549
##########                DOCK_Rotatable_Bonds:                   6
##########                       Formal_Charge:         -0.00999989
##########                     HBond_Acceptors:                   5
##########                        HBond_Donors:                   1
##########                         Heavy_Atoms:                  29
##########                          Grid_Score:          -27.466972
##########                     Grid_vdw_energy:          -26.710865
##########                      Grid_es_energy:           -0.756107
##########           Internal_energy_repulsive:           38.420780

@<TRIPOS>MOLECULE
ZINC000225856071
 56 58 1 0 0
SMALL
USER_CHARGES


@<TRIPOS>ATOM
      1 C1        -17.3007   -2.5799   55.2275 C.3     1  ZINC000225856071    0.0200
      2 O2        -15.8886   -2.7015   55.4091 O.3     1  ZINC000225856071   -0.3100
      3 C3        -15.3296   -1.9685   56.4077 C.ar    1  ZINC000225856071    0.1900
      4 C4        -15.0261   -0.6309   56.2014 C.ar    1  ZINC000225856071   -0.2300
      5 C5        -14.4583    0.1123   57.2184 C.ar    1  ZINC000225856071    0.0700
      6 C6        -14.1284    1.5657   56.9948 C.3     1  ZINC000225856071   -0.1800
      7 C7        -14.1930   -0.4760   58.4409 C.ar    1  ZINC000225856071   -0.7100
      8 S8        -13.4693    0.4746   59.7359 S.o2    1  ZINC000225856071    2.7000
      9 O9        -14.1313    1.7320   59.7288 O.2     1  ZINC000225856071   -0.9600
     10 O10       -13.4212   -0.3719   60.8763 O.2     1  ZINC000225856071   -0.9500
     11 N11       -11.8975    0.7710   59.3069 N.am    1  ZINC000225856071   -1.1100
     12 C12       -10.9764   -0.3459   59.0826 C.3     1  ZINC000225856071    0.2400
     13 H13       -11.4256   -1.2673   59.4532 H       1  ZINC000225856071    0.1100
     14 C14        -9.6850   -0.0868   59.8145 C.ar    1  ZINC000225856071   -0.1000
     15 C15        -9.7022    0.5428   61.0451 C.ar    1  ZINC000225856071   -0.1000
     16 C16        -8.5175    0.7804   61.7166 C.ar    1  ZINC000225856071   -0.1200
     17 C17        -7.3155    0.3881   61.1577 C.ar    1  ZINC000225856071   -0.1100
     18 C18        -7.2983   -0.2423   59.9276 C.ar    1  ZINC000225856071   -0.1100
     19 C19        -8.4834   -0.4838   59.2581 C.ar    1  ZINC000225856071   -0.1000
     20 C20       -10.6995   -0.4801   57.6073 C.ar    1  ZINC000225856071   -0.0900
     21 C21       -10.6585    0.6458   56.8067 C.ar    1  ZINC000225856071   -0.1000
     22 C22       -10.4044    0.5227   55.4532 C.ar    1  ZINC000225856071   -0.1200
     23 C23       -10.1911   -0.7261   54.9010 C.ar    1  ZINC000225856071   -0.0800
     24 C24        -9.9147   -0.8603   53.4256 C.3     1  ZINC000225856071   -0.1200
     25 C25       -10.2309   -1.8523   55.7020 C.ar    1  ZINC000225856071   -0.1200
     26 C26       -10.4810   -1.7289   57.0557 C.ar    1  ZINC000225856071   -0.0600
     27 C27       -10.5243   -2.9563   57.9290 C.3     1  ZINC000225856071   -0.1300
     28 C28       -14.4950   -1.8093   58.6492 C.ar    1  ZINC000225856071    0.0200
     29 C29       -15.0667   -2.5555   57.6372 C.ar    1  ZINC000225856071   -0.1400
     30 C30       -15.3960   -4.0083   57.8651 C.3     1  ZINC000225856071   -0.1100
     31 H31       -17.5504   -1.5426   55.0044 H       1  ZINC000225856071    0.0600
     32 H32       -17.6168   -3.2156   54.4003 H       1  ZINC000225856071    0.1000
     33 H33       -17.8122   -2.8888   56.1392 H       1  ZINC000225856071    0.0600
     34 H34       -15.2333   -0.1707   55.2465 H       1  ZINC000225856071    0.1400
     35 H35       -14.9824    2.1801   57.2797 H       1  ZINC000225856071    0.0900
     36 H36       -13.2652    1.8397   57.6014 H       1  ZINC000225856071    0.1000
     37 H37       -13.8988    1.7285   55.9418 H       1  ZINC000225856071    0.0800
     38 H38       -11.5868    1.6841   59.2042 H       1  ZINC000225856071    0.4200
     39 H39       -10.6413    0.8492   61.4817 H       1  ZINC000225856071    0.1200
     40 H40        -8.5309    1.2730   62.6777 H       1  ZINC000225856071    0.1200
     41 H41        -6.3899    0.5745   61.6820 H       1  ZINC000225856071    0.1200
     42 H42        -6.3593   -0.5484   59.4908 H       1  ZINC000225856071    0.1200
     43 H43        -8.4699   -0.9763   58.2970 H       1  ZINC000225856071    0.1200
     44 H44       -10.8251    1.6218   57.2384 H       1  ZINC000225856071    0.1200
     45 H45       -10.3730    1.4025   54.8276 H       1  ZINC000225856071    0.1200
     46 H46        -8.8405   -0.8004   53.2503 H       1  ZINC000225856071    0.0700
     47 H47       -10.2874   -1.8217   53.0721 H       1  ZINC000225856071    0.0700
     48 H48       -10.4161   -0.0560   52.8874 H       1  ZINC000225856071    0.0700
     49 H49       -10.0638   -2.8281   55.2705 H       1  ZINC000225856071    0.1200
     50 H50        -9.5267   -3.1612   58.3175 H       1  ZINC000225856071    0.0800
     51 H51       -11.2101   -2.7875   58.7593 H       1  ZINC000225856071    0.0700
     52 H52       -10.8676   -3.8081   57.3417 H       1  ZINC000225856071    0.0700
     53 H53       -14.2871   -2.2666   59.6053 H       1  ZINC000225856071    0.1500
     54 H54       -16.4109   -4.0942   58.2536 H       1  ZINC000225856071    0.0700
     55 H55       -15.3209   -4.5501   56.9223 H       1  ZINC000225856071    0.0700
     56 H56       -14.6946   -4.4314   58.5843 H       1  ZINC000225856071    0.0700
@<TRIPOS>BOND
     1     1     2    1
     2     1    31    1
     3     1    32    1
     4     1    33    1
     5     2     3    1
     6     3    29   ar
     7     3     4   ar
     8     4     5   ar
     9     4    34    1
    10     5     6    1
    11     5     7   ar
    12     6    35    1
    13     6    36    1
    14     6    37    1
    15     7     8    1
    16     7    28   ar
    17     8     9    2
    18     8    10    2
    19     8    11   am
    20    11    12    1
    21    11    38    1
    22    12    13    1
    23    12    14    1
    24    12    20    1
    25    14    19   ar
    26    14    15   ar
    27    15    16   ar
    28    15    39    1
    29    16    17   ar
    30    16    40    1
    31    17    18   ar
    32    17    41    1
    33    18    19   ar
    34    18    42    1
    35    19    43    1
    36    20    26   ar
    37    20    21   ar
    38    21    22   ar
    39    21    44    1
    40    22    23   ar
    41    22    45    1
    42    23    24    1
    43    23    25   ar
    44    24    46    1
    45    24    47    1
    46    24    48    1
    47    25    26   ar
    48    25    49    1
    49    26    27    1
    50    27    50    1
    51    27    51    1
    52    27    52    1
    53    28    29   ar
    54    28    53    1
    55    29    30    1
    56    30    54    1
    57    30    55    1
    58    30    56    1
@<TRIPOS>SUBSTRUCTURE
     1 ZINC000225856071        1 TEMP              0 ****  ****    0 ROOT


##########                                Name:    ZINC001500042809
##########                DOCK_Rotatable_Bonds:                   9
##########                         Heavy_Atoms:                  24
##########                    Molecular_Weight:              346.45
##########                DOCK_Rotatable_Bonds:                   9
##########                       Formal_Charge:           0.0200001
##########                     HBond_Acceptors:                   6
##########                        HBond_Donors:                   2
##########                         Heavy_Atoms:                  24
##########                          Grid_Score:          -27.451780
##########                     Grid_vdw_energy:          -26.856386
##########                      Grid_es_energy:           -0.595394
##########           Internal_energy_repulsive:           14.921851

@<TRIPOS>MOLECULE
ZINC001500042809
 46 47 1 0 0
SMALL
USER_CHARGES


@<TRIPOS>ATOM
      1 C1         -3.6416    2.0699   51.4019 C.3     1  ZINC001500042809    0.0200
      2 O2         -4.9914    2.5171   51.2604 O.3     1  ZINC001500042809   -0.3100
      3 C3         -5.8745    2.1216   52.2121 C.ar    1  ZINC001500042809    0.1600
      4 C4         -6.2450    3.0015   53.2224 C.ar    1  ZINC001500042809   -0.1600
      5 C5         -7.1403    2.6038   54.1901 C.ar    1  ZINC001500042809   -0.0200
      6 C6         -7.6768    1.3140   54.1552 C.ar    1  ZINC001500042809   -0.1800
      7 C7         -8.6368    0.8838   55.1905 C.2     1  ZINC001500042809    0.5600
      8 O8         -9.1889   -0.1955   55.0971 O.2     1  ZINC001500042809   -0.5300
      9 N9         -8.9014    1.6874   56.2398 N.am    1  ZINC001500042809   -0.7300
     10 C10        -9.8530    1.2597   57.2684 C.3     1  ZINC001500042809    0.1300
     11 C11        -9.1098    0.4902   58.3622 C.3     1  ZINC001500042809   -0.1200
     12 H12        -8.7641   -0.4639   57.9644 H       1  ZINC001500042809    0.0900
     13 C13        -7.9085    1.3104   58.8364 C.3     1  ZINC001500042809   -0.1500
     14 C14       -10.0534    0.2398   59.5404 C.3     1  ZINC001500042809    0.1300
     15 N15       -11.0838   -0.7234   59.1446 N.am    1  ZINC001500042809   -0.7300
     16 C16       -12.3267   -0.6295   59.6572 C.2     1  ZINC001500042809    0.5900
     17 O17       -12.5934    0.2564   60.4480 O.2     1  ZINC001500042809   -0.5200
     18 C18       -13.3572   -1.5943   59.2625 C.2     1  ZINC001500042809   -0.2800
     19 C19       -13.4910   -2.1476   58.0203 C.2     1  ZINC001500042809   -0.0100
     20 C20       -12.5731   -1.8293   56.8683 C.3     1  ZINC001500042809   -0.1100
     21 C21       -14.5460   -3.0239   57.9261 C.2     1  ZINC001500042809   -0.1500
     22 C22       -15.2529   -3.1841   59.0510 C.2     1  ZINC001500042809   -0.2200
     23 S23       -14.6147   -2.2307   60.3138 S.3     1  ZINC001500042809    0.1900
     24 C24        -7.2977    0.4308   53.1410 C.ar    1  ZINC001500042809   -0.0400
     25 C25        -6.4055    0.8377   52.1742 C.ar    1  ZINC001500042809   -0.2200
     26 H26        -3.2360    2.4321   52.3465 H       1  ZINC001500042809    0.0600
     27 H27        -3.6168    0.9802   51.3898 H       1  ZINC001500042809    0.0600
     28 H28        -3.0426    2.4562   50.5772 H       1  ZINC001500042809    0.1000
     29 H29        -5.8299    3.9981   53.2486 H       1  ZINC001500042809    0.1400
     30 H30        -7.4272    3.2878   54.9751 H       1  ZINC001500042809    0.1400
     31 H31        -8.4618    2.5488   56.3138 H       1  ZINC001500042809    0.4000
     32 H32       -10.6079    0.6143   56.8191 H       1  ZINC001500042809    0.0800
     33 H33       -10.3353    2.1348   57.7035 H       1  ZINC001500042809    0.0800
     34 H34        -7.2363    1.4889   57.9970 H       1  ZINC001500042809    0.0600
     35 H35        -8.2542    2.2646   59.2341 H       1  ZINC001500042809    0.0600
     36 H36        -7.3791    0.7623   59.6157 H       1  ZINC001500042809    0.0600
     37 H37        -9.4865   -0.1595   60.3813 H       1  ZINC001500042809    0.0800
     38 H38       -10.5258    1.1775   59.8332 H       1  ZINC001500042809    0.0800
     39 H39       -10.8716   -1.4288   58.5133 H       1  ZINC001500042809    0.4000
     40 H40       -11.7346   -2.5258   56.8686 H       1  ZINC001500042809    0.0800
     41 H41       -13.1213   -1.9210   55.9307 H       1  ZINC001500042809    0.0700
     42 H42       -12.1992   -0.8107   56.9724 H       1  ZINC001500042809    0.0900
     43 H43       -14.7868   -3.5447   57.0112 H       1  ZINC001500042809    0.1500
     44 H44       -16.1105   -3.8335   59.1476 H       1  ZINC001500042809    0.1700
     45 H45        -7.7068   -0.5683   53.1132 H       1  ZINC001500042809    0.1300
     46 H46        -6.1146    0.1567   51.3881 H       1  ZINC001500042809    0.1400
@<TRIPOS>BOND
     1     1     2    1
     2     1    26    1
     3     1    27    1
     4     1    28    1
     5     2     3    1
     6     3    25   ar
     7     3     4   ar
     8     4     5   ar
     9     4    29    1
    10     5     6   ar
    11     5    30    1
    12     6     7    1
    13     6    24   ar
    14     7     8    2
    15     7     9   am
    16     9    10    1
    17     9    31    1
    18    10    11    1
    19    10    32    1
    20    10    33    1
    21    11    12    1
    22    11    13    1
    23    11    14    1
    24    13    34    1
    25    13    35    1
    26    13    36    1
    27    14    15    1
    28    14    37    1
    29    14    38    1
    30    15    16   am
    31    15    39    1
    32    16    17    2
    33    16    18    1
    34    18    23    1
    35    18    19    2
    36    19    20    1
    37    19    21    1
    38    20    40    1
    39    20    41    1
    40    20    42    1
    41    21    22    2
    42    21    43    1
    43    22    23    1
    44    22    44    1
    45    24    25   ar
    46    24    45    1
    47    25    46    1
@<TRIPOS>SUBSTRUCTURE
     1 ZINC001500042809        1 TEMP              0 ****  ****    0 ROOT


##########                                Name:    ZINC000279593480
##########                DOCK_Rotatable_Bonds:                   9
##########                         Heavy_Atoms:                  23
##########                    Molecular_Weight:              340.85
##########                DOCK_Rotatable_Bonds:                   9
##########                       Formal_Charge:          -0.0500002
##########                     HBond_Acceptors:                   6
##########                        HBond_Donors:                   3
##########                         Heavy_Atoms:                  23
##########                          Grid_Score:          -27.422377
##########                     Grid_vdw_energy:          -27.454460
##########                      Grid_es_energy:            0.032084
##########           Internal_energy_repulsive:           18.611855

@<TRIPOS>MOLECULE
ZINC000279593480
 48 49 1 0 0
SMALL
USER_CHARGES


@<TRIPOS>ATOM
      1 C1         -5.5660    2.9881   58.1979 C.3     1  ZINC000279593480   -0.1400
      2 C2         -6.4932    2.0889   57.3776 C.3     1  ZINC000279593480   -0.1400
      3 C3         -7.4663    1.3701   58.3141 C.3     1  ZINC000279593480    0.1700
      4 H4         -7.2109    0.3115   58.3607 H       1  ZINC000279593480    0.0900
      5 C5         -8.8933    1.5277   57.7854 C.3     1  ZINC000279593480   -0.0900
      6 C6         -9.5346    0.1698   57.6580 C.ar    1  ZINC000279593480   -0.0800
      7 C7         -9.8717   -0.5442   58.7927 C.ar    1  ZINC000279593480   -0.1000
      8 C8        -10.4599   -1.7896   58.6765 C.ar    1  ZINC000279593480   -0.1100
      9 C9        -10.7113   -2.3214   57.4243 C.ar    1  ZINC000279593480   -0.0400
     10 Cl10      -11.4506   -3.8853   57.2776 Cl      1  ZINC000279593480   -0.0700
     11 C11       -10.3738   -1.6063   56.2891 C.ar    1  ZINC000279593480   -0.1100
     12 C12        -9.7908   -0.3586   56.4065 C.ar    1  ZINC000279593480   -0.1000
     13 N13        -7.3750    1.9538   59.6547 N.am    1  ZINC000279593480   -0.7400
     14 C14        -7.0884    1.1700   60.7130 C.2     1  ZINC000279593480    0.7100
     15 O15        -6.9041   -0.0214   60.5547 O.2     1  ZINC000279593480   -0.5800
     16 N16        -7.0060    1.7067   61.9465 N.am    1  ZINC000279593480   -0.7500
     17 C17        -6.6928    0.8549   63.0965 C.3     1  ZINC000279593480    0.1200
     18 C18        -7.3819    1.4098   64.3449 C.3     1  ZINC000279593480    0.0900
     19 O19        -8.0481    2.6375   64.0436 O.3     1  ZINC000279593480   -0.5400
     20 C20        -8.3775    0.3765   64.9180 C.3     1  ZINC000279593480   -0.1900
     21 C21        -7.8367    0.0797   66.3343 C.3     1  ZINC000279593480    0.0500
     22 O22        -7.0650    1.2485   66.6871 O.3     1  ZINC000279593480   -0.3600
     23 C23        -6.3572    1.6150   65.4826 C.3     1  ZINC000279593480    0.0900
     24 H24        -5.4939    0.9656   65.3374 H       1  ZINC000279593480    0.0800
     25 C25        -5.9166    3.0787   65.5482 C.3     1  ZINC000279593480   -0.1400
     26 H26        -5.0050    2.3802   58.9078 H       1  ZINC000279593480    0.0600
     27 H27        -4.8728    3.5002   57.5307 H       1  ZINC000279593480    0.0400
     28 H28        -6.1597    3.7244   58.7396 H       1  ZINC000279593480    0.0600
     29 H29        -7.0541    2.6967   56.6677 H       1  ZINC000279593480    0.0600
     30 H30        -5.8994    1.3526   56.8359 H       1  ZINC000279593480    0.0700
     31 H31        -9.4719    2.1392   58.4777 H       1  ZINC000279593480    0.0800
     32 H32        -8.8675    2.0104   56.8085 H       1  ZINC000279593480    0.0900
     33 H33        -9.6750   -0.1290   59.7701 H       1  ZINC000279593480    0.1300
     34 H34       -10.7229   -2.3475   59.5631 H       1  ZINC000279593480    0.1300
     35 H35       -10.5695   -2.0211   55.3113 H       1  ZINC000279593480    0.1300
     36 H36        -9.5276    0.1999   55.5204 H       1  ZINC000279593480    0.1300
     37 H37        -7.5210    2.9045   59.7808 H       1  ZINC000279593480    0.3900
     38 H38        -7.1543    2.6569   62.0729 H       1  ZINC000279593480    0.3900
     39 H39        -7.0472   -0.1580   62.9057 H       1  ZINC000279593480    0.0800
     40 H40        -5.6142    0.8389   63.2537 H       1  ZINC000279593480    0.0800
     41 H41        -7.9281    2.9367   63.1319 H       1  ZINC000279593480    0.3700
     42 H42        -9.3796    0.8017   64.9732 H       1  ZINC000279593480    0.0900
     43 H43        -8.3788   -0.5295   64.3121 H       1  ZINC000279593480    0.0900
     44 H44        -8.6609   -0.0563   67.0344 H       1  ZINC000279593480    0.1000
     45 H45        -7.2002   -0.8050   66.3197 H       1  ZINC000279593480    0.0600
     46 H46        -5.2375    3.2164   66.3895 H       1  ZINC000279593480    0.0600
     47 H47        -5.4074    3.3466   64.6225 H       1  ZINC000279593480    0.0700
     48 H48        -6.7912    3.7159   65.6793 H       1  ZINC000279593480    0.0700
@<TRIPOS>BOND
     1     1     2    1
     2     1    26    1
     3     1    27    1
     4     1    28    1
     5     2     3    1
     6     2    29    1
     7     2    30    1
     8     3     4    1
     9     3     5    1
    10     3    13    1
    11     5     6    1
    12     5    31    1
    13     5    32    1
    14     6    12   ar
    15     6     7   ar
    16     7     8   ar
    17     7    33    1
    18     8     9   ar
    19     8    34    1
    20     9    10    1
    21     9    11   ar
    22    11    12   ar
    23    11    35    1
    24    12    36    1
    25    13    14   am
    26    13    37    1
    27    14    15    2
    28    14    16   am
    29    16    17    1
    30    16    38    1
    31    17    18    1
    32    17    39    1
    33    17    40    1
    34    18    23    1
    35    18    19    1
    36    18    20    1
    37    19    41    1
    38    20    21    1
    39    20    42    1
    40    20    43    1
    41    21    22    1
    42    21    44    1
    43    21    45    1
    44    22    23    1
    45    23    24    1
    46    23    25    1
    47    25    46    1
    48    25    47    1
    49    25    48    1
@<TRIPOS>SUBSTRUCTURE
     1 ZINC000279593480        1 TEMP              0 ****  ****    0 ROOT


##########                                Name:    ZINC000274225049
##########                DOCK_Rotatable_Bonds:                   6
##########                         Heavy_Atoms:                  25
##########                    Molecular_Weight:             380.895
##########                DOCK_Rotatable_Bonds:                   6
##########                       Formal_Charge:           0.0200006
##########                     HBond_Acceptors:                   7
##########                        HBond_Donors:                   2
##########                         Heavy_Atoms:                  25
##########                          Grid_Score:          -27.413376
##########                     Grid_vdw_energy:          -27.805464
##########                      Grid_es_energy:            0.392088
##########           Internal_energy_repulsive:           11.621773

@<TRIPOS>MOLECULE
ZINC000274225049
 46 48 1 0 0
SMALL
USER_CHARGES


@<TRIPOS>ATOM
      1 C1         -7.3352    3.3322   51.9212 C.3     1  ZINC000274225049   -0.1600
      2 C2         -6.6736    2.4478   52.9800 C.3     1  ZINC000274225049    0.2000
      3 H3         -6.2563    1.5608   52.5034 H       1  ZINC000274225049    0.1100
      4 N4         -7.6723    2.0445   53.9730 N.am    1  ZINC000274225049   -0.7400
      5 C5         -8.2108    0.8100   53.9242 C.2     1  ZINC000274225049    0.7100
      6 O6         -7.8665    0.0305   53.0570 O.2     1  ZINC000274225049   -0.5800
      7 N7         -9.1308    0.4395   54.8368 N.am    1  ZINC000274225049   -0.7500
      8 C8         -9.7148   -0.9030   54.7849 C.3     1  ZINC000274225049    0.1500
      9 C9         -9.9278   -1.4219   56.2084 C.3     1  ZINC000274225049   -0.1000
     10 H10        -9.1033   -1.1064   56.8477 H       1  ZINC000274225049    0.1000
     11 C11       -10.0303   -2.9572   56.1997 C.3     1  ZINC000274225049   -0.1100
     12 C12       -10.5774   -3.4239   57.5634 C.3     1  ZINC000274225049   -0.5900
     13 S13       -11.5958   -2.0307   58.1698 S.o2    1  ZINC000274225049    2.3900
     14 O14       -12.9653   -2.4094   58.1604 O.2     1  ZINC000274225049   -0.9300
     15 O15       -11.0153   -1.5039   59.3551 O.2     1  ZINC000274225049   -0.9300
     16 C16       -11.2705   -0.8898   56.7722 C.3     1  ZINC000274225049   -0.5900
     17 C17        -5.5713    3.2180   53.6602 C.ar    1  ZINC000274225049   -0.0700
     18 C18        -4.2660    3.1898   53.1411 C.ar    1  ZINC000274225049   -0.0300
     19 C19        -3.9558    2.4512   51.9863 C.ar    1  ZINC000274225049   -0.1100
     20 C20        -2.6804    2.4475   51.5119 C.ar    1  ZINC000274225049   -0.1100
     21 C21        -1.6736    3.1662   52.1542 C.ar    1  ZINC000274225049   -0.1100
     22 C22        -1.9369    3.8926   53.2746 C.ar    1  ZINC000274225049   -0.1000
     23 C23        -3.2423    3.9207   53.7942 C.ar    1  ZINC000274225049   -0.0400
     24 C24        -3.5529    4.6600   54.9491 C.ar    1  ZINC000274225049   -0.0300
     25 Cl25       -2.3160    5.5638   55.7660 Cl      1  ZINC000274225049   -0.0600
     26 C26        -4.8302    4.6636   55.4234 C.ar    1  ZINC000274225049   -0.1000
     27 C27        -5.8367    3.9490   54.7777 C.ar    1  ZINC000274225049   -0.1000
     28 H28        -8.1324    2.7751   51.4291 H       1  ZINC000274225049    0.0700
     29 H29        -7.7525    4.2192   52.3978 H       1  ZINC000274225049    0.0700
     30 H30        -6.5921    3.6322   51.1824 H       1  ZINC000274225049    0.0800
     31 H31        -7.9461    2.6661   54.6656 H       1  ZINC000274225049    0.4000
     32 H32        -9.4063    1.0619   55.5280 H       1  ZINC000274225049    0.4000
     33 H33       -10.6724   -0.8628   54.2657 H       1  ZINC000274225049    0.0800
     34 H34        -9.0400   -1.5723   54.2513 H       1  ZINC000274225049    0.0800
     35 H35       -10.7061   -3.2749   55.4057 H       1  ZINC000274225049    0.0900
     36 H36        -9.0436   -3.3895   56.0333 H       1  ZINC000274225049    0.0900
     37 H37       -11.1915   -4.3158   57.4398 H       1  ZINC000274225049    0.1400
     38 H38        -9.7567   -3.6210   58.2531 H       1  ZINC000274225049    0.1400
     39 H39       -11.1635    0.1354   57.1265 H       1  ZINC000274225049    0.1400
     40 H40       -12.0591   -0.9610   56.0231 H       1  ZINC000274225049    0.1400
     41 H41        -4.7256    1.8892   51.4783 H       1  ZINC000274225049    0.1300
     42 H42        -2.4445    1.8788   50.6245 H       1  ZINC000274225049    0.1300
     43 H43        -0.6695    3.1461   51.7571 H       1  ZINC000274225049    0.1300
     44 H44        -1.1467    4.4444   53.7619 H       1  ZINC000274225049    0.1300
     45 H45        -5.0665    5.2319   56.3109 H       1  ZINC000274225049    0.1300
     46 H46        -6.8409    3.9685   55.1744 H       1  ZINC000274225049    0.1300
@<TRIPOS>BOND
     1     1     2    1
     2     1    28    1
     3     1    29    1
     4     1    30    1
     5     2     3    1
     6     2     4    1
     7     2    17    1
     8     4     5   am
     9     4    31    1
    10     5     6    2
    11     5     7   am
    12     7     8    1
    13     7    32    1
    14     8     9    1
    15     8    33    1
    16     8    34    1
    17     9    10    1
    18     9    16    1
    19     9    11    1
    20    11    12    1
    21    11    35    1
    22    11    36    1
    23    12    13    1
    24    12    37    1
    25    12    38    1
    26    13    14    2
    27    13    15    2
    28    13    16    1
    29    16    39    1
    30    16    40    1
    31    17    27   ar
    32    17    18   ar
    33    18    23   ar
    34    18    19   ar
    35    19    20   ar
    36    19    41    1
    37    20    21   ar
    38    20    42    1
    39    21    22   ar
    40    21    43    1
    41    22    23   ar
    42    22    44    1
    43    23    24   ar
    44    24    25    1
    45    24    26   ar
    46    26    27   ar
    47    26    45    1
    48    27    46    1
@<TRIPOS>SUBSTRUCTURE
     1 ZINC000274225049        1 TEMP              0 ****  ****    0 ROOT


##########                                Name:    ZINC000952280524
##########                DOCK_Rotatable_Bonds:                   9
##########                         Heavy_Atoms:                  25
##########                    Molecular_Weight:             348.486
##########                DOCK_Rotatable_Bonds:                   9
##########                       Formal_Charge:          -0.0100004
##########                     HBond_Acceptors:                   5
##########                        HBond_Donors:                   1
##########                         Heavy_Atoms:                  25
##########                          Grid_Score:          -27.389198
##########                     Grid_vdw_energy:          -26.057541
##########                      Grid_es_energy:           -1.331657
##########           Internal_energy_repulsive:           24.730623

@<TRIPOS>MOLECULE
ZINC000952280524
 57 59 1 0 0
SMALL
USER_CHARGES


@<TRIPOS>ATOM
      1 C1         -4.3302    1.9930   51.5299 C.3     1  ZINC000952280524   -0.1800
      2 C2         -5.7196    2.1133   52.1591 C.3     1  ZINC000952280524    0.1400
      3 C3         -6.6765    2.7684   51.1610 C.3     1  ZINC000952280524   -0.1900
      4 O4         -6.2030    0.8122   52.4987 O.3     1  ZINC000952280524   -0.5500
      5 C5         -5.6346    2.9717   53.4228 C.3     1  ZINC000952280524   -0.1200
      6 C6         -6.8162    2.6771   54.3106 C.2     1  ZINC000952280524    0.5300
      7 O7         -7.8658    2.3148   53.8227 O.2     1  ZINC000952280524   -0.5100
      8 N8         -6.7066    2.8162   55.6466 N.am    1  ZINC000952280524   -0.6300
      9 C9         -5.4991    3.2456   56.3672 C.3     1  ZINC000952280524    0.1000
     10 C10        -5.8354    3.2329   57.8733 C.3     1  ZINC000952280524   -0.1300
     11 C11        -7.0374    2.2549   57.9527 C.3     1  ZINC000952280524   -0.1000
     12 H12        -6.6976    1.2195   57.9781 H       1  ZINC000952280524    0.0900
     13 C13        -7.9210    2.5690   59.1616 C.3     1  ZINC000952280524   -0.0700
     14 C14        -8.9987    1.4912   59.2991 C.3     1  ZINC000952280524   -0.1300
     15 C15        -9.9025    1.8274   60.4896 C.3     1  ZINC000952280524    0.1100
     16 N16        -9.0655    1.9998   61.6848 N.am    1  ZINC000952280524   -0.6100
     17 C17        -9.3221    1.3024   62.8092 C.2     1  ZINC000952280524    0.5500
     18 O18       -10.2538    0.5215   62.8411 O.2     1  ZINC000952280524   -0.5500
     19 C19        -8.4752    1.4859   63.9979 C.2     1  ZINC000952280524   -0.2200
     20 C20        -7.3400    0.8033   64.1173 C.2     1  ZINC000952280524   -0.0300
     21 C21        -6.4714    0.9926   65.3343 C.3     1  ZINC000952280524   -0.1500
     22 C22        -5.2076    1.8400   65.1751 C.3     1  ZINC000952280524   -0.1700
     23 C23        -6.4077    2.3937   65.9456 C.3     1  ZINC000952280524   -0.1600
     24 C24        -7.9431    2.9465   61.6308 C.3     1  ZINC000952280524    0.1000
     25 C25        -7.0614    2.5977   60.4276 C.3     1  ZINC000952280524   -0.1300
     26 C26        -7.7794    2.5692   56.6271 C.3     1  ZINC000952280524    0.1100
     27 H27        -3.9984    2.9745   51.1913 H       1  ZINC000952280524    0.0700
     28 H28        -3.6285    1.6076   52.2696 H       1  ZINC000952280524    0.0600
     29 H29        -4.3738    1.3114   50.6805 H       1  ZINC000952280524    0.0600
     30 H30        -6.7370    2.1569   50.2608 H       1  ZINC000952280524    0.0600
     31 H31        -7.6663    2.8541   51.6093 H       1  ZINC000952280524    0.0800
     32 H32        -6.3078    3.7609   50.9020 H       1  ZINC000952280524    0.0600
     33 H33        -7.0764    0.8130   52.9138 H       1  ZINC000952280524    0.3700
     34 H34        -4.7127    2.7417   53.9568 H       1  ZINC000952280524    0.1000
     35 H35        -5.6414    4.0262   53.1469 H       1  ZINC000952280524    0.1000
     36 H36        -4.6810    2.5545   56.1642 H       1  ZINC000952280524    0.0700
     37 H37        -5.2215    4.2532   56.0578 H       1  ZINC000952280524    0.0700
     38 H38        -4.9929    2.8564   58.4534 H       1  ZINC000952280524    0.0800
     39 H39        -6.1247    4.2277   58.2122 H       1  ZINC000952280524    0.0800
     40 H40        -8.3950    3.5406   59.0224 H       1  ZINC000952280524    0.0800
     41 H41        -9.5957    1.4554   58.3879 H       1  ZINC000952280524    0.0800
     42 H42        -8.5260    0.5229   59.4633 H       1  ZINC000952280524    0.0700
     43 H43       -10.4450    2.7509   60.2872 H       1  ZINC000952280524    0.0700
     44 H44       -10.6095    1.0140   60.6528 H       1  ZINC000952280524    0.0900
     45 H45        -8.7752    2.1748   64.7736 H       1  ZINC000952280524    0.1300
     46 H46        -7.0407    0.1134   63.3423 H       1  ZINC000952280524    0.1300
     47 H47        -6.4259    0.1434   66.0160 H       1  ZINC000952280524    0.1200
     48 H48        -4.3301    1.5483   65.7522 H       1  ZINC000952280524    0.1000
     49 H49        -5.0042    2.2605   64.1903 H       1  ZINC000952280524    0.1000
     50 H50        -6.9941    3.1786   65.4677 H       1  ZINC000952280524    0.1000
     51 H51        -6.3199    2.4663   67.0297 H       1  ZINC000952280524    0.1000
     52 H52        -8.3259    3.9612   61.5214 H       1  ZINC000952280524    0.0700
     53 H53        -7.3574    2.8714   62.5470 H       1  ZINC000952280524    0.0900
     54 H54        -6.6070    1.6190   60.5810 H       1  ZINC000952280524    0.0700
     55 H55        -6.2795    3.3495   60.3195 H       1  ZINC000952280524    0.0800
     56 H56        -8.4054    3.4539   56.7433 H       1  ZINC000952280524    0.0700
     57 H57        -8.3820    1.7152   56.3180 H       1  ZINC000952280524    0.0800
@<TRIPOS>BOND
     1     1     2    1
     2     1    27    1
     3     1    28    1
     4     1    29    1
     5     2     3    1
     6     2     4    1
     7     2     5    1
     8     3    30    1
     9     3    31    1
    10     3    32    1
    11     4    33    1
    12     5     6    1
    13     5    34    1
    14     5    35    1
    15     6     7    2
    16     6     8   am
    17     8    26    1
    18     8     9    1
    19     9    10    1
    20     9    36    1
    21     9    37    1
    22    10    11    1
    23    10    38    1
    24    10    39    1
    25    11    12    1
    26    11    13    1
    27    11    26    1
    28    13    25    1
    29    13    14    1
    30    13    40    1
    31    14    15    1
    32    14    41    1
    33    14    42    1
    34    15    16    1
    35    15    43    1
    36    15    44    1
    37    16    17   am
    38    16    24    1
    39    17    18    2
    40    17    19    1
    41    19    20    2
    42    19    45    1
    43    20    21    1
    44    20    46    1
    45    21    23    1
    46    21    22    1
    47    21    47    1
    48    22    23    1
    49    22    48    1
    50    22    49    1
    51    23    50    1
    52    23    51    1
    53    24    25    1
    54    24    52    1
    55    24    53    1
    56    25    54    1
    57    25    55    1
    58    26    56    1
    59    26    57    1
@<TRIPOS>SUBSTRUCTURE
     1 ZINC000952280524        1 TEMP              0 ****  ****    0 ROOT


##########                                Name:    ZINC000535362552
##########                DOCK_Rotatable_Bonds:                   5
##########                         Heavy_Atoms:                  26
##########                    Molecular_Weight:             416.228
##########                DOCK_Rotatable_Bonds:                   5
##########                       Formal_Charge:         -0.00999981
##########                     HBond_Acceptors:                   6
##########                        HBond_Donors:                   1
##########                         Heavy_Atoms:                  26
##########                          Grid_Score:          -27.375687
##########                     Grid_vdw_energy:          -24.615274
##########                      Grid_es_energy:           -2.760411
##########           Internal_energy_repulsive:          163.102661

@<TRIPOS>MOLECULE
ZINC000535362552
 40 43 1 0 0
SMALL
USER_CHARGES


@<TRIPOS>ATOM
      1 C1         -4.8225    2.4751   65.6086 C.3     1  ZINC000535362552    0.0300
      2 O2         -5.3518    1.4856   66.5299 O.3     1  ZINC000535362552   -0.3400
      3 C3         -6.3825    0.7328   66.0944 C.2     1  ZINC000535362552    0.5500
      4 O4         -6.8683   -0.1117   66.8217 O.2     1  ZINC000535362552   -0.4800
      5 C5         -6.9177    0.9330   64.7422 C.2     1  ZINC000535362552   -0.0100
      6 C6         -6.4940    1.8813   63.8658 C.2     1  ZINC000535362552   -0.0900
      7 C7         -7.3018    1.7077   62.6592 C.ar    1  ZINC000535362552   -0.1300
      8 C8         -7.3534    2.3553   61.4228 C.ar    1  ZINC000535362552   -0.0600
      9 C9         -8.2604    1.9323   60.4694 C.ar    1  ZINC000535362552    0.1200
     10 N10        -8.3188    2.5759   59.2261 N.am    1  ZINC000535362552   -0.6700
     11 C11        -7.8121    1.9743   58.1316 C.2     1  ZINC000535362552    0.5200
     12 O12        -7.3057    0.8759   58.2228 O.2     1  ZINC000535362552   -0.5000
     13 C13        -7.8748    2.6664   56.7944 C.3     1  ZINC000535362552   -0.1000
     14 H14        -8.6733    3.4083   56.7790 H       1  ZINC000535362552    0.1300
     15 C15        -6.5138    3.3118   56.4415 C.3     1  ZINC000535362552    0.0600
     16 O16        -6.4259    3.1123   55.0204 O.3     1  ZINC000535362552   -0.2900
     17 C17        -7.1361    2.0022   54.6785 C.ar    1  ZINC000535362552    0.1300
     18 C18        -7.0684    1.2175   53.5303 C.ar    1  ZINC000535362552   -0.1300
     19 C19        -7.8997    0.1260   53.3842 C.ar    1  ZINC000535362552   -0.0500
     20 C20        -8.8077   -0.1984   54.3761 C.ar    1  ZINC000535362552   -0.1200
     21 Br21       -9.9479   -1.6925   54.1672 Br      1  ZINC000535362552   -0.0400
     22 C22        -8.8782    0.5748   55.5226 C.ar    1  ZINC000535362552   -0.0100
     23 C23        -8.0469    1.6617   55.6717 C.ar    1  ZINC000535362552   -0.1600
     24 C24        -9.1170    0.8669   60.7417 C.ar    1  ZINC000535362552   -0.0900
     25 C25        -9.0731    0.2233   61.9583 C.ar    1  ZINC000535362552   -0.0900
     26 C26        -8.1682    0.6321   62.9310 C.ar    1  ZINC000535362552    0.0700
     27 O27        -7.9007    0.1994   64.1795 O.3     1  ZINC000535362552   -0.1700
     28 H28        -5.6091    3.1813   65.3426 H       1  ZINC000535362552    0.0700
     29 H29        -3.9995    3.0097   66.0829 H       1  ZINC000535362552    0.1100
     30 H30        -4.4617    1.9772   64.7086 H       1  ZINC000535362552    0.0700
     31 H31        -5.7182    2.6151   64.0278 H       1  ZINC000535362552    0.1800
     32 H32        -6.6894    3.1809   61.2132 H       1  ZINC000535362552    0.1400
     33 H33        -8.7238    3.4542   59.1532 H       1  ZINC000535362552    0.4100
     34 H34        -6.5163    4.3747   56.6828 H       1  ZINC000535362552    0.1200
     35 H35        -5.6993    2.8002   56.9544 H       1  ZINC000535362552    0.0900
     36 H36        -6.3624    1.4640   52.7511 H       1  ZINC000535362552    0.1400
     37 H37        -7.8414   -0.4780   52.4908 H       1  ZINC000535362552    0.1400
     38 H38        -9.5855    0.3254   56.2997 H       1  ZINC000535362552    0.1400
     39 H39        -9.8226    0.5432   59.9908 H       1  ZINC000535362552    0.1500
     40 H40        -9.7427   -0.6005   62.1570 H       1  ZINC000535362552    0.1500
@<TRIPOS>BOND
     1     1     2    1
     2     1    28    1
     3     1    29    1
     4     1    30    1
     5     2     3    1
     6     3     4    2
     7     3     5    1
     8     5    27    1
     9     5     6    2
    10     6     7    1
    11     6    31    1
    12     7    26   ar
    13     7     8   ar
    14     8     9   ar
    15     8    32    1
    16     9    10    1
    17     9    24   ar
    18    10    11   am
    19    10    33    1
    20    11    12    2
    21    11    13    1
    22    13    14    1
    23    13    23    1
    24    13    15    1
    25    15    16    1
    26    15    34    1
    27    15    35    1
    28    16    17    1
    29    17    23   ar
    30    17    18   ar
    31    18    19   ar
    32    18    36    1
    33    19    20   ar
    34    19    37    1
    35    20    21    1
    36    20    22   ar
    37    22    23   ar
    38    22    38    1
    39    24    25   ar
    40    24    39    1
    41    25    26   ar
    42    25    40    1
    43    26    27    1
@<TRIPOS>SUBSTRUCTURE
     1 ZINC000535362552        1 TEMP              0 ****  ****    0 ROOT


##########                                Name:    ZINC000944933040
##########                DOCK_Rotatable_Bonds:                   4
##########                         Heavy_Atoms:                  26
##########                    Molecular_Weight:             354.449
##########                DOCK_Rotatable_Bonds:                   4
##########                       Formal_Charge:           0.0100002
##########                     HBond_Acceptors:                   5
##########                        HBond_Donors:                   0
##########                         Heavy_Atoms:                  26
##########                          Grid_Score:          -27.356369
##########                     Grid_vdw_energy:          -27.512505
##########                      Grid_es_energy:            0.156135
##########           Internal_energy_repulsive:            9.355438

@<TRIPOS>MOLECULE
ZINC000944933040
 52 57 1 0 0
SMALL
USER_CHARGES


@<TRIPOS>ATOM
      1 O1         -2.5870    1.5504   51.1119 O.2     1  ZINC000944933040   -0.5200
      2 C2         -2.8589    2.4814   51.8455 C.2     1  ZINC000944933040    0.6400
      3 C3         -1.8104    3.2346   52.4654 C.1     1  ZINC000944933040   -0.2200
      4 C4         -0.9508    3.8519   52.9734 C.1     1  ZINC000944933040   -0.0400
      5 C5          0.1270    4.6260   53.6105 C.3     1  ZINC000944933040   -0.0700
      6 C6          0.8834    3.9659   54.7651 C.3     1  ZINC000944933040   -0.1600
      7 C7          1.5629    4.1393   53.4052 C.3     1  ZINC000944933040   -0.1600
      8 N8         -4.1470    2.8080   52.0709 N.am    1  ZINC000944933040   -0.6000
      9 C9         -4.4868    3.9382   52.9453 C.3     1  ZINC000944933040    0.1100
     10 C10        -5.4222    3.4402   54.0537 C.3     1  ZINC000944933040   -0.1200
     11 C11        -6.5992    2.7022   53.4205 C.3     1  ZINC000944933040   -0.0900
     12 C12        -7.7128    2.3512   54.4168 C.3     1  ZINC000944933040    0.1200
     13 N13        -8.6510    2.7757   53.3585 N.am    1  ZINC000944933040   -0.6400
     14 C14        -9.9366    2.4939   53.0681 C.2     1  ZINC000944933040    0.5500
     15 O15       -10.4664    3.0045   52.1040 O.2     1  ZINC000944933040   -0.5300
     16 C16       -10.7157    1.5443   53.9412 C.3     1  ZINC000944933040   -0.1300
     17 H17       -10.7468    1.9048   54.9694 H       1  ZINC000944933040    0.1100
     18 C18       -10.1115    0.1184   53.8773 C.3     1  ZINC000944933040   -0.1300
     19 C19       -11.2816   -0.7260   53.2893 C.3     1  ZINC000944933040    0.0900
     20 H20       -10.9894   -1.6618   52.8129 H       1  ZINC000944933040    0.1300
     21 O21       -11.9314    0.2552   52.4162 O.3     1  ZINC000944933040   -0.3600
     22 C22       -12.1564    1.3385   53.3845 C.3     1  ZINC000944933040    0.1200
     23 H23       -12.6501    2.2276   52.9924 H       1  ZINC000944933040    0.1400
     24 C24       -12.9298    0.5856   54.5084 C.3     1  ZINC000944933040   -0.2000
     25 H25       -13.1197    1.1114   55.4441 H       1  ZINC000944933040    0.1200
     26 C26       -13.8287   -0.5768   54.0819 C.3     1  ZINC000944933040   -0.1300
     27 C27       -12.3153   -0.8604   54.4475 C.3     1  ZINC000944933040   -0.2000
     28 H28       -12.0649   -1.4475   55.3312 H       1  ZINC000944933040    0.1300
     29 C29        -7.6166    3.6334   52.7464 C.3     1  ZINC000944933040    0.1100
     30 C30        -6.1711    1.5284   52.5433 C.3     1  ZINC000944933040   -0.1100
     31 C31        -5.2306    2.0425   51.4405 C.3     1  ZINC000944933040    0.1100
     32 H32        -0.0366    5.7022   53.6658 H       1  ZINC000944933040    0.1400
     33 H33         1.2176    4.6079   55.5801 H       1  ZINC000944933040    0.1100
     34 H34         0.5830    2.9584   55.0528 H       1  ZINC000944933040    0.1000
     35 H35         1.7095    3.2458   52.7983 H       1  ZINC000944933040    0.1000
     36 H36         2.3440    4.8953   53.3257 H       1  ZINC000944933040    0.1100
     37 H37        -3.5774    4.3431   53.3892 H       1  ZINC000944933040    0.0900
     38 H38        -4.9883    4.7119   52.3642 H       1  ZINC000944933040    0.0800
     39 H39        -4.8787    2.7624   54.7120 H       1  ZINC000944933040    0.0800
     40 H40        -5.7912    4.2898   54.6281 H       1  ZINC000944933040    0.0900
     41 H41        -7.7704    1.2893   54.6555 H       1  ZINC000944933040    0.0800
     42 H42        -7.7291    2.9890   55.3006 H       1  ZINC000944933040    0.0900
     43 H43        -9.2469    0.0946   53.2140 H       1  ZINC000944933040    0.0800
     44 H44        -9.8446   -0.2330   54.8740 H       1  ZINC000944933040    0.0900
     45 H45       -14.5770   -0.9206   54.7961 H       1  ZINC000944933040    0.1000
     46 H46       -14.1247   -0.6240   53.0340 H       1  ZINC000944933040    0.1000
     47 H47        -7.6043    4.6522   53.1338 H       1  ZINC000944933040    0.0900
     48 H48        -7.5976    3.5905   51.6574 H       1  ZINC000944933040    0.0800
     49 H49        -5.6519    0.7885   53.1525 H       1  ZINC000944933040    0.0800
     50 H50        -7.0509    1.0742   52.0875 H       1  ZINC000944933040    0.0800
     51 H51        -5.7865    2.6824   50.7552 H       1  ZINC000944933040    0.0700
     52 H52        -4.8104    1.1974   50.8952 H       1  ZINC000944933040    0.1000
@<TRIPOS>BOND
     1     1     2    2
     2     2     3    1
     3     2     8   am
     4     3     4    3
     5     4     5    1
     6     5     7    1
     7     5     6    1
     8     5    32    1
     9     6     7    1
    10     6    33    1
    11     6    34    1
    12     7    35    1
    13     7    36    1
    14     8    31    1
    15     8     9    1
    16     9    10    1
    17     9    37    1
    18     9    38    1
    19    10    11    1
    20    10    39    1
    21    10    40    1
    22    11    29    1
    23    11    12    1
    24    11    30    1
    25    12    13    1
    26    12    41    1
    27    12    42    1
    28    13    14   am
    29    13    29    1
    30    14    15    2
    31    14    16    1
    32    16    17    1
    33    16    22    1
    34    16    18    1
    35    18    19    1
    36    18    43    1
    37    18    44    1
    38    19    20    1
    39    19    27    1
    40    19    21    1
    41    21    22    1
    42    22    23    1
    43    22    24    1
    44    24    25    1
    45    24    27    1
    46    24    26    1
    47    26    27    1
    48    26    45    1
    49    26    46    1
    50    27    28    1
    51    29    47    1
    52    29    48    1
    53    30    31    1
    54    30    49    1
    55    30    50    1
    56    31    51    1
    57    31    52    1
@<TRIPOS>SUBSTRUCTURE
     1 ZINC000944933040        1 TEMP              0 ****  ****    0 ROOT


##########                                Name:    ZINC001345266033
##########                DOCK_Rotatable_Bonds:                   4
##########                         Heavy_Atoms:                  29
##########                    Molecular_Weight:               389.5
##########                DOCK_Rotatable_Bonds:                   4
##########                       Formal_Charge:          -0.0100001
##########                     HBond_Acceptors:                   6
##########                        HBond_Donors:                   0
##########                         Heavy_Atoms:                  29
##########                          Grid_Score:          -27.348297
##########                     Grid_vdw_energy:          -27.631420
##########                      Grid_es_energy:            0.283122
##########           Internal_energy_repulsive:            9.336671

@<TRIPOS>MOLECULE
ZINC001345266033
 56 61 1 0 0
SMALL
USER_CHARGES


@<TRIPOS>ATOM
      1 C1         -6.0057    3.2861   53.1407 C.ar    1  ZINC001345266033   -0.1100
      2 C2         -7.2277    3.5303   53.7620 C.ar    1  ZINC001345266033   -0.0900
      3 C3         -8.1638    2.5446   53.8811 C.ar    1  ZINC001345266033   -0.1100
      4 C4         -7.8904    1.2732   53.3713 C.ar    1  ZINC001345266033    0.0000
      5 C5         -6.6469    1.0200   52.7370 C.ar    1  ZINC001345266033   -0.1100
      6 C6         -5.7074    2.0574   52.6327 C.ar    1  ZINC001345266033   -0.0900
      7 C7         -6.3981   -0.2669   52.2330 C.ar    1  ZINC001345266033    0.1700
      8 N8         -7.2935   -1.2183   52.3437 N.ar    1  ZINC001345266033   -0.4800
      9 C9         -8.4717   -1.0535   52.9217 C.ar    1  ZINC001345266033    0.0900
     10 C10        -8.8458    0.1698   53.4625 C.ar    1  ZINC001345266033   -0.0700
     11 C11       -10.1608    0.3498   54.1065 C.2     1  ZINC001345266033    0.2300
     12 N12       -11.1874    1.0074   53.6162 N.2     1  ZINC001345266033   -0.2600
     13 N13       -12.1711    0.9621   54.4420 N.2     1  ZINC001345266033   -0.3000
     14 C14       -11.8336    0.2736   55.5092 C.2     1  ZINC001345266033    0.3600
     15 N15       -12.6359    0.0158   56.6066 N.3     1  ZINC001345266033   -0.4600
     16 C16       -13.6429    1.0695   56.7811 C.3     1  ZINC001345266033    0.0600
     17 C17       -14.3677    0.8811   58.1153 C.3     1  ZINC001345266033   -0.1100
     18 C18       -15.1036   -0.4641   58.1038 C.3     1  ZINC001345266033   -0.0800
     19 C19       -14.0964   -1.5667   57.7599 C.3     1  ZINC001345266033   -0.1300
     20 C20       -13.4238   -2.3015   58.9183 C.3     1  ZINC001345266033   -0.1600
     21 C21       -14.4859   -3.0099   58.0745 C.3     1  ZINC001345266033   -0.1700
     22 C22       -13.2654   -1.3088   56.4996 C.3     1  ZINC001345266033    0.1100
     23 N23       -10.5466   -0.1445   55.3317 N.pl3   1  ZINC001345266033   -0.4600
     24 C24        -9.7407   -0.9455   56.2566 C.3     1  ZINC001345266033    0.1000
     25 C25        -9.5663   -0.1838   57.5720 C.3     1  ZINC001345266033   -0.1400
     26 H26       -10.5376    0.0582   58.0034 H       1  ZINC001345266033    0.1000
     27 C27        -8.7377    1.1043   57.3463 C.3     1  ZINC001345266033   -0.1500
     28 C28        -7.8273    1.1287   58.6005 C.3     1  ZINC001345266033    0.0500
     29 O29        -7.5179   -0.2646   58.8192 O.3     1  ZINC001345266033   -0.3700
     30 C30        -8.7252   -1.0085   58.5654 C.3     1  ZINC001345266033    0.0300
     31 H31        -5.2840    4.0851   53.0560 H       1  ZINC001345266033    0.1300
     32 H32        -7.4376    4.5139   54.1556 H       1  ZINC001345266033    0.1300
     33 H33        -9.1078    2.7456   54.3656 H       1  ZINC001345266033    0.1600
     34 H34        -4.7556    1.8833   52.1530 H       1  ZINC001345266033    0.1400
     35 H35        -5.4564   -0.4757   51.7472 H       1  ZINC001345266033    0.1700
     36 H36        -9.1567   -1.8868   52.9739 H       1  ZINC001345266033    0.1700
     37 H37       -13.1537    2.0434   56.7692 H       1  ZINC001345266033    0.0700
     38 H38       -14.3652    1.0186   55.9664 H       1  ZINC001345266033    0.0500
     39 H39       -13.6422    0.8923   58.9287 H       1  ZINC001345266033    0.0800
     40 H40       -15.0865    1.6881   58.2563 H       1  ZINC001345266033    0.0800
     41 H41       -15.5335   -0.6547   59.0871 H       1  ZINC001345266033    0.0700
     42 H42       -15.8937   -0.4428   57.3533 H       1  ZINC001345266033    0.0700
     43 H43       -12.3868   -2.6095   58.7847 H       1  ZINC001345266033    0.0900
     44 H44       -13.7001   -2.0055   59.9304 H       1  ZINC001345266033    0.0900
     45 H45       -15.4608   -3.1800   58.5313 H       1  ZINC001345266033    0.1000
     46 H46       -14.1476   -3.7841   57.3857 H       1  ZINC001345266033    0.1000
     47 H47       -13.9133   -1.3354   55.6234 H       1  ZINC001345266033    0.0600
     48 H48       -12.4938   -2.0734   56.4085 H       1  ZINC001345266033    0.0800
     49 H49       -10.2436   -1.8932   56.4495 H       1  ZINC001345266033    0.1100
     50 H50        -8.7628   -1.1364   55.8148 H       1  ZINC001345266033    0.1100
     51 H51        -8.1434    1.0300   56.4356 H       1  ZINC001345266033    0.0800
     52 H52        -9.3834    1.9821   57.3173 H       1  ZINC001345266033    0.0900
     53 H53        -6.9184    1.6974   58.4041 H       1  ZINC001345266033    0.1000
     54 H54        -8.3626    1.5417   59.4554 H       1  ZINC001345266033    0.0600
     55 H55        -9.2764   -1.1487   59.4952 H       1  ZINC001345266033    0.0600
     56 H56        -8.4793   -1.9763   58.1285 H       1  ZINC001345266033    0.0900
@<TRIPOS>BOND
     1     1     6   ar
     2     1     2   ar
     3     1    31    1
     4     2     3   ar
     5     2    32    1
     6     3     4   ar
     7     3    33    1
     8     4    10   ar
     9     4     5   ar
    10     5     6   ar
    11     5     7   ar
    12     6    34    1
    13     7     8   ar
    14     7    35    1
    15     8     9   ar
    16     9    10   ar
    17     9    36    1
    18    10    11    1
    19    11    23    1
    20    11    12    2
    21    12    13    1
    22    13    14    2
    23    14    15    1
    24    14    23    1
    25    15    22    1
    26    15    16    1
    27    16    17    1
    28    16    37    1
    29    16    38    1
    30    17    18    1
    31    17    39    1
    32    17    40    1
    33    18    19    1
    34    18    41    1
    35    18    42    1
    36    19    21    1
    37    19    20    1
    38    19    22    1
    39    20    21    1
    40    20    43    1
    41    20    44    1
    42    21    45    1
    43    21    46    1
    44    22    47    1
    45    22    48    1
    46    23    24    1
    47    24    25    1
    48    24    49    1
    49    24    50    1
    50    25    26    1
    51    25    30    1
    52    25    27    1
    53    27    28    1
    54    27    51    1
    55    27    52    1
    56    28    29    1
    57    28    53    1
    58    28    54    1
    59    29    30    1
    60    30    55    1
    61    30    56    1
@<TRIPOS>SUBSTRUCTURE
     1 ZINC001345266033        1 TEMP              0 ****  ****    0 ROOT


##########                                Name:    ZINC001098311495
##########                DOCK_Rotatable_Bonds:                   8
##########                         Heavy_Atoms:                  24
##########                    Molecular_Weight:             328.454
##########                DOCK_Rotatable_Bonds:                   8
##########                       Formal_Charge:          0.00999987
##########                     HBond_Acceptors:                   4
##########                        HBond_Donors:                   1
##########                         Heavy_Atoms:                  24
##########                          Grid_Score:          -27.329639
##########                     Grid_vdw_energy:          -27.299887
##########                      Grid_es_energy:           -0.029753
##########           Internal_energy_repulsive:           32.600739

@<TRIPOS>MOLECULE
ZINC001098311495
 52 54 1 0 0
SMALL
USER_CHARGES


@<TRIPOS>ATOM
      1 C1        -12.9212    0.8781   61.0954 C.3     1  ZINC001098311495   -0.1500
      2 C2        -11.7850    1.0449   62.1065 C.3     1  ZINC001098311495    0.0500
      3 O3        -10.5427    0.7051   61.4873 O.3     1  ZINC001098311495   -0.2800
      4 C4         -9.4472    0.6644   62.2863 C.ar    1  ZINC001098311495    0.1900
      5 C5         -9.5399    1.0486   63.6155 C.ar    1  ZINC001098311495   -0.2200
      6 C6         -8.4223    1.0127   64.4261 C.ar    1  ZINC001098311495   -0.0500
      7 C7         -7.2044    0.5876   63.9217 C.ar    1  ZINC001098311495   -0.1700
      8 C8         -7.0955    0.1963   62.6046 C.ar    1  ZINC001098311495   -0.0500
      9 C9         -8.2177    0.2280   61.7737 C.ar    1  ZINC001098311495   -0.1800
     10 C10        -8.1083   -0.1895   60.3628 C.2     1  ZINC001098311495    0.5600
     11 O11        -7.0144   -0.2874   59.8409 O.2     1  ZINC001098311495   -0.5200
     12 N12        -9.2207   -0.4622   59.6526 N.am    1  ZINC001098311495   -0.7200
     13 C13        -9.1120   -0.8785   58.2522 C.3     1  ZINC001098311495    0.1600
     14 H14        -8.1623   -1.3834   58.0758 H       1  ZINC001098311495    0.1000
     15 C15        -9.2697    0.3386   57.3080 C.3     1  ZINC001098311495   -0.1200
     16 C16       -10.5371   -0.0113   56.4712 C.3     1  ZINC001098311495    0.0500
     17 H17       -11.0401    0.8347   56.0028 H       1  ZINC001098311495    0.1100
     18 C18       -10.1028   -1.1549   55.5055 C.3     1  ZINC001098311495   -0.1500
     19 C19        -9.9493   -2.3794   56.4405 C.3     1  ZINC001098311495   -0.1500
     20 C20       -10.3052   -1.8011   57.8598 C.3     1  ZINC001098311495    0.0400
     21 H21       -10.6082   -2.5373   58.6042 H       1  ZINC001098311495    0.1200
     22 N22       -11.3468   -0.7801   57.4825 N.3     1  ZINC001098311495   -0.4900
     23 C23       -12.5074   -1.4212   56.8501 C.3     1  ZINC001098311495    0.0600
     24 C24       -13.3093   -2.1522   57.8959 C.2     1  ZINC001098311495   -0.1600
     25 C25       -14.5093   -2.5940   57.6108 C.2     1  ZINC001098311495   -0.1200
     26 C26       -15.0876   -2.3712   56.2372 C.3     1  ZINC001098311495   -0.1200
     27 C27       -15.3111   -3.3250   58.6566 C.3     1  ZINC001098311495   -0.1200
     28 H28       -12.7484    1.5351   60.2431 H       1  ZINC001098311495    0.0700
     29 H29       -12.9558   -0.1569   60.7553 H       1  ZINC001098311495    0.0700
     30 H30       -13.8687    1.1373   61.5677 H       1  ZINC001098311495    0.0800
     31 H31       -11.9578    0.3879   62.9589 H       1  ZINC001098311495    0.0600
     32 H32       -11.7503    2.0799   62.4466 H       1  ZINC001098311495    0.0600
     33 H33       -10.4862    1.3808   64.0162 H       1  ZINC001098311495    0.1300
     34 H34        -8.4985    1.3175   65.4593 H       1  ZINC001098311495    0.1300
     35 H35        -6.3361    0.5624   64.5635 H       1  ZINC001098311495    0.1300
     36 H36        -6.1438   -0.1341   62.2155 H       1  ZINC001098311495    0.1300
     37 H37       -10.0934   -0.3829   60.0686 H       1  ZINC001098311495    0.4000
     38 H38        -8.3981    0.4378   56.6610 H       1  ZINC001098311495    0.0800
     39 H39        -9.4287    1.2514   57.8819 H       1  ZINC001098311495    0.0800
     40 H40       -10.8733   -1.3381   54.7566 H       1  ZINC001098311495    0.0700
     41 H41        -9.1524   -0.9145   55.0289 H       1  ZINC001098311495    0.0800
     42 H42       -10.6438   -3.1696   56.1550 H       1  ZINC001098311495    0.0700
     43 H43        -8.9229   -2.7461   56.4274 H       1  ZINC001098311495    0.0800
     44 H44       -12.1650   -2.1285   56.0947 H       1  ZINC001098311495    0.0500
     45 H45       -13.1310   -0.6609   56.3797 H       1  ZINC001098311495    0.0800
     46 H46       -12.8948   -2.3120   58.8803 H       1  ZINC001098311495    0.1100
     47 H47       -15.6300   -1.4259   56.2202 H       1  ZINC001098311495    0.0700
     48 H48       -15.7696   -3.1859   55.9936 H       1  ZINC001098311495    0.0600
     49 H49       -14.2815   -2.3408   55.5041 H       1  ZINC001098311495    0.0600
     50 H50       -15.0357   -4.3796   58.6542 H       1  ZINC001098311495    0.0700
     51 H51       -15.1041   -2.8977   59.6377 H       1  ZINC001098311495    0.0600
     52 H52       -16.3737   -3.2265   58.4342 H       1  ZINC001098311495    0.0600
@<TRIPOS>BOND
     1     1     2    1
     2     1    28    1
     3     1    29    1
     4     1    30    1
     5     2     3    1
     6     2    31    1
     7     2    32    1
     8     3     4    1
     9     4     9   ar
    10     4     5   ar
    11     5     6   ar
    12     5    33    1
    13     6     7   ar
    14     6    34    1
    15     7     8   ar
    16     7    35    1
    17     8     9   ar
    18     8    36    1
    19     9    10    1
    20    10    11    2
    21    10    12   am
    22    12    13    1
    23    12    37    1
    24    13    14    1
    25    13    20    1
    26    13    15    1
    27    15    16    1
    28    15    38    1
    29    15    39    1
    30    16    17    1
    31    16    22    1
    32    16    18    1
    33    18    19    1
    34    18    40    1
    35    18    41    1
    36    19    20    1
    37    19    42    1
    38    19    43    1
    39    20    21    1
    40    20    22    1
    41    22    23    1
    42    23    24    1
    43    23    44    1
    44    23    45    1
    45    24    25    2
    46    24    46    1
    47    25    26    1
    48    25    27    1
    49    26    47    1
    50    26    48    1
    51    26    49    1
    52    27    50    1
    53    27    51    1
    54    27    52    1
@<TRIPOS>SUBSTRUCTURE
     1 ZINC001098311495        1 TEMP              0 ****  ****    0 ROOT


##########                                Name:    ZINC000504638019
##########                DOCK_Rotatable_Bonds:                   8
##########                         Heavy_Atoms:                  24
##########                    Molecular_Weight:             328.454
##########                DOCK_Rotatable_Bonds:                   8
##########                       Formal_Charge:        -1.49012e-08
##########                     HBond_Acceptors:                   4
##########                        HBond_Donors:                   1
##########                         Heavy_Atoms:                  24
##########                          Grid_Score:          -27.316725
##########                     Grid_vdw_energy:          -27.187281
##########                      Grid_es_energy:           -0.129443
##########           Internal_energy_repulsive:           15.255164

@<TRIPOS>MOLECULE
ZINC000504638019
 52 53 1 0 0
SMALL
USER_CHARGES


@<TRIPOS>ATOM
      1 C1         -5.1355    1.7454   51.5570 C.3     1  ZINC000504638019   -0.1200
      2 C2         -6.4166    1.2544   52.1806 C.ar    1  ZINC000504638019   -0.0900
      3 C3         -6.6957   -0.0991   52.2117 C.ar    1  ZINC000504638019   -0.1200
      4 C4         -7.8707   -0.5495   52.7837 C.ar    1  ZINC000504638019   -0.1100
      5 C5         -8.7665    0.3536   53.3251 C.ar    1  ZINC000504638019   -0.0900
      6 C6        -10.0477   -0.1374   53.9482 C.3     1  ZINC000504638019   -0.0600
      7 H7        -10.4079    0.5989   54.6667 H       1  ZINC000504638019    0.0900
      8 C8        -11.1001   -0.3420   52.8566 C.3     1  ZINC000504638019   -0.1500
      9 C9         -9.7906   -1.4650   54.6639 C.3     1  ZINC000504638019    0.1300
     10 N10       -10.7057   -1.5921   55.8009 N.am    1  ZINC000504638019   -0.7000
     11 C11       -10.2583   -2.0802   56.9748 C.2     1  ZINC000504638019    0.5100
     12 O12        -9.0971   -2.4131   57.0904 O.2     1  ZINC000504638019   -0.5100
     13 C13       -11.1923   -2.2115   58.1341 C.2     1  ZINC000504638019    0.5100
     14 O14       -11.8008   -3.2468   58.3088 O.2     1  ZINC000504638019   -0.5200
     15 N15       -11.3586   -1.1802   58.9857 N.am    1  ZINC000504638019   -0.5800
     16 C16       -12.2742   -1.3090   60.1220 C.3     1  ZINC000504638019    0.0600
     17 C17       -10.6240    0.0696   58.7749 C.3     1  ZINC000504638019    0.1100
     18 C18        -9.2701   -0.0090   59.4830 C.3     1  ZINC000504638019   -0.1000
     19 H19        -8.7329   -0.8966   59.1490 H       1  ZINC000504638019    0.0800
     20 C20        -9.4844   -0.0768   60.9967 C.3     1  ZINC000504638019   -0.0800
     21 C21        -8.1791    0.1122   61.7126 C.2     1  ZINC000504638019   -0.1500
     22 C22        -7.1176    0.6114   61.1655 C.2     1  ZINC000504638019   -0.1600
     23 C23        -7.0408    1.0617   59.7360 C.3     1  ZINC000504638019   -0.0900
     24 C24        -8.4461    1.2441   59.1609 C.3     1  ZINC000504638019   -0.1100
     25 C25        -8.4867    1.7070   53.2952 C.ar    1  ZINC000504638019   -0.1100
     26 C26        -7.3098    2.1571   52.7266 C.ar    1  ZINC000504638019   -0.1200
     27 H27        -4.3533    1.7826   52.3151 H       1  ZINC000504638019    0.0700
     28 H28        -4.8360    1.0658   50.7590 H       1  ZINC000504638019    0.0700
     29 H29        -5.2906    2.7428   51.1456 H       1  ZINC000504638019    0.0700
     30 H30        -5.9959   -0.8046   51.7887 H       1  ZINC000504638019    0.1200
     31 H31        -8.0892   -1.6069   52.8074 H       1  ZINC000504638019    0.1200
     32 H32       -12.0268   -0.6972   53.3073 H       1  ZINC000504638019    0.0600
     33 H33       -11.2833    0.6038   52.3467 H       1  ZINC000504638019    0.0600
     34 H34       -10.7400   -1.0783   52.1381 H       1  ZINC000504638019    0.0600
     35 H35        -9.9560   -2.2896   53.9706 H       1  ZINC000504638019    0.0800
     36 H36        -8.7612   -1.4917   55.0213 H       1  ZINC000504638019    0.0800
     37 H37       -11.6336   -1.3248   55.7089 H       1  ZINC000504638019    0.4100
     38 H38       -11.7587   -1.7944   60.9508 H       1  ZINC000504638019    0.0600
     39 H39       -12.6095   -0.3194   60.4325 H       1  ZINC000504638019    0.0700
     40 H40       -13.1355   -1.9091   59.8285 H       1  ZINC000504638019    0.1100
     41 H41       -10.4672    0.2233   57.7072 H       1  ZINC000504638019    0.0900
     42 H42       -11.1987    0.9018   59.1811 H       1  ZINC000504638019    0.0900
     43 H43       -10.1790    0.7072   61.2987 H       1  ZINC000504638019    0.0800
     44 H44        -9.9031   -1.0483   61.2591 H       1  ZINC000504638019    0.0600
     45 H45        -8.1220   -0.1867   62.7488 H       1  ZINC000504638019    0.1000
     46 H46        -6.2320    0.7105   61.7758 H       1  ZINC000504638019    0.1000
     47 H47        -6.5025    2.0082   59.6837 H       1  ZINC000504638019    0.0700
     48 H48        -6.5087    0.3130   59.1494 H       1  ZINC000504638019    0.0700
     49 H49        -8.3852    1.3810   58.0812 H       1  ZINC000504638019    0.0700
     50 H50        -8.9190    2.1136   59.6175 H       1  ZINC000504638019    0.0700
     51 H51        -9.1862    2.4126   53.7185 H       1  ZINC000504638019    0.1200
     52 H52        -7.0912    3.2145   52.7033 H       1  ZINC000504638019    0.1200
@<TRIPOS>BOND
     1     1     2    1
     2     1    27    1
     3     1    28    1
     4     1    29    1
     5     2    26   ar
     6     2     3   ar
     7     3     4   ar
     8     3    30    1
     9     4     5   ar
    10     4    31    1
    11     5     6    1
    12     5    25   ar
    13     6     7    1
    14     6     8    1
    15     6     9    1
    16     8    32    1
    17     8    33    1
    18     8    34    1
    19     9    10    1
    20     9    35    1
    21     9    36    1
    22    10    11   am
    23    10    37    1
    24    11    12    2
    25    11    13    1
    26    13    14    2
    27    13    15   am
    28    15    16    1
    29    15    17    1
    30    16    38    1
    31    16    39    1
    32    16    40    1
    33    17    18    1
    34    17    41    1
    35    17    42    1
    36    18    19    1
    37    18    24    1
    38    18    20    1
    39    20    21    1
    40    20    43    1
    41    20    44    1
    42    21    22    2
    43    21    45    1
    44    22    23    1
    45    22    46    1
    46    23    24    1
    47    23    47    1
    48    23    48    1
    49    24    49    1
    50    24    50    1
    51    25    26   ar
    52    25    51    1
    53    26    52    1
@<TRIPOS>SUBSTRUCTURE
     1 ZINC000504638019        1 TEMP              0 ****  ****    0 ROOT


##########                                Name:    ZINC000151991096
##########                DOCK_Rotatable_Bonds:                   8
##########                         Heavy_Atoms:                  27
##########                    Molecular_Weight:             364.444
##########                DOCK_Rotatable_Bonds:                   8
##########                       Formal_Charge:          -0.0200004
##########                     HBond_Acceptors:                   5
##########                        HBond_Donors:                   1
##########                         Heavy_Atoms:                  27
##########                          Grid_Score:          -27.314037
##########                     Grid_vdw_energy:          -27.869644
##########                      Grid_es_energy:            0.555607
##########           Internal_energy_repulsive:           17.166033

@<TRIPOS>MOLECULE
ZINC000151991096
 51 53 1 0 0
SMALL
USER_CHARGES


@<TRIPOS>ATOM
      1 C1         -8.7312    0.2602   64.2990 C.3     1  ZINC000151991096   -0.1500
      2 C2         -8.6248    1.7624   64.5696 C.3     1  ZINC000151991096   -0.1300
      3 C3         -7.1843    2.2219   64.3358 C.3     1  ZINC000151991096    0.1400
      4 H4         -7.0973    3.2816   64.5762 H       1  ZINC000151991096    0.1000
      5 N5         -6.8255    2.0087   62.9315 N.am    1  ZINC000151991096   -0.7200
      6 C6         -7.1812    2.9154   61.9999 C.2     1  ZINC000151991096    0.5600
      7 O7         -7.8013    3.9095   62.3248 O.2     1  ZINC000151991096   -0.5300
      8 C8         -6.8181    2.7013   60.5853 C.ar    1  ZINC000151991096   -0.1700
      9 C9         -6.4249    3.7821   59.7918 C.ar    1  ZINC000151991096   -0.0500
     10 C10        -6.0864    3.5782   58.4727 C.ar    1  ZINC000151991096   -0.1600
     11 C11        -6.1357    2.2993   57.9303 C.ar    1  ZINC000151991096    0.1600
     12 O12        -5.8010    2.1024   56.6299 O.3     1  ZINC000151991096   -0.3000
     13 C13        -6.2493    3.0804   55.6894 C.3     1  ZINC000151991096    0.0900
     14 C14        -5.9275    2.6177   54.2918 C.ar    1  ZINC000151991096   -0.0500
     15 C15        -4.8741    3.1814   53.6024 C.ar    1  ZINC000151991096   -0.1000
     16 C16        -4.5773    2.7577   52.3189 C.ar    1  ZINC000151991096   -0.0900
     17 C17        -5.3338    1.7675   51.7181 C.ar    1  ZINC000151991096   -0.1200
     18 C18        -6.3903    1.1951   52.3961 C.ar    1  ZINC000151991096   -0.0700
     19 C19        -6.6915    1.6134   53.6936 C.ar    1  ZINC000151991096   -0.0200
     20 C20        -7.7866    1.0236   54.4034 C.1     1  ZINC000151991096    0.2400
     21 N21        -8.6553    0.5559   54.9663 N.1     1  ZINC000151991096   -0.4000
     22 C22        -6.5264    1.2216   58.7163 C.ar    1  ZINC000151991096   -0.2200
     23 C23        -6.8613    1.4164   60.0377 C.ar    1  ZINC000151991096   -0.0100
     24 C24        -6.2405    1.4168   65.2313 C.3     1  ZINC000151991096    0.0700
     25 H25        -6.3343    0.3544   65.0066 H       1  ZINC000151991096    0.1000
     26 C26        -6.5831    1.6704   66.7151 C.3     1  ZINC000151991096   -0.1500
     27 C27        -5.1772    1.7322   67.3721 C.3     1  ZINC000151991096   -0.1600
     28 C28        -4.3502    2.3851   66.2362 C.3     1  ZINC000151991096    0.0500
     29 O29        -4.8891    1.8411   65.0186 O.3     1  ZINC000151991096   -0.3700
     30 H30        -8.0642   -0.2783   64.9722 H       1  ZINC000151991096    0.0500
     31 H31        -9.7574   -0.0671   64.4655 H       1  ZINC000151991096    0.0500
     32 H32        -8.4477    0.0560   63.2665 H       1  ZINC000151991096    0.0600
     33 H33        -9.2917    2.3010   63.8963 H       1  ZINC000151991096    0.0700
     34 H34        -8.9083    1.9666   65.6021 H       1  ZINC000151991096    0.0700
     35 H35        -6.3318    1.2150   62.6722 H       1  ZINC000151991096    0.4000
     36 H36        -6.3866    4.7760   60.2124 H       1  ZINC000151991096    0.1300
     37 H37        -5.7827    4.4130   57.8585 H       1  ZINC000151991096    0.1400
     38 H38        -7.3266    3.2133   55.7890 H       1  ZINC000151991096    0.0800
     39 H39        -5.7468    4.0280   55.8832 H       1  ZINC000151991096    0.0800
     40 H40        -4.2799    3.9553   54.0653 H       1  ZINC000151991096    0.1400
     41 H41        -3.7513    3.2024   51.7837 H       1  ZINC000151991096    0.1400
     42 H42        -5.0971    1.4421   50.7158 H       1  ZINC000151991096    0.1400
     43 H43        -6.9803    0.4224   51.9257 H       1  ZINC000151991096    0.1400
     44 H44        -6.5637    0.2295   58.2911 H       1  ZINC000151991096    0.1300
     45 H45        -7.1644    0.5785   60.6480 H       1  ZINC000151991096    0.1400
     46 H46        -7.1095    2.6173   66.8353 H       1  ZINC000151991096    0.0800
     47 H47        -7.1669    0.8461   67.1249 H       1  ZINC000151991096    0.0900
     48 H48        -5.1869    2.3612   68.2623 H       1  ZINC000151991096    0.0800
     49 H49        -4.8073    0.7333   67.6031 H       1  ZINC000151991096    0.0800
     50 H50        -4.4720    3.4682   66.2538 H       1  ZINC000151991096    0.0600
     51 H51        -3.2974    2.1204   66.3343 H       1  ZINC000151991096    0.0900
@<TRIPOS>BOND
     1     1     2    1
     2     1    30    1
     3     1    31    1
     4     1    32    1
     5     2     3    1
     6     2    33    1
     7     2    34    1
     8     3     4    1
     9     3     5    1
    10     3    24    1
    11     5     6   am
    12     5    35    1
    13     6     7    2
    14     6     8    1
    15     8    23   ar
    16     8     9   ar
    17     9    10   ar
    18     9    36    1
    19    10    11   ar
    20    10    37    1
    21    11    12    1
    22    11    22   ar
    23    12    13    1
    24    13    14    1
    25    13    38    1
    26    13    39    1
    27    14    19   ar
    28    14    15   ar
    29    15    16   ar
    30    15    40    1
    31    16    17   ar
    32    16    41    1
    33    17    18   ar
    34    17    42    1
    35    18    19   ar
    36    18    43    1
    37    19    20    1
    38    20    21    3
    39    22    23   ar
    40    22    44    1
    41    23    45    1
    42    24    25    1
    43    24    29    1
    44    24    26    1
    45    26    27    1
    46    26    46    1
    47    26    47    1
    48    27    28    1
    49    27    48    1
    50    27    49    1
    51    28    29    1
    52    28    50    1
    53    28    51    1
@<TRIPOS>SUBSTRUCTURE
     1 ZINC000151991096        1 TEMP              0 ****  ****    0 ROOT


##########                                Name:    ZINC000486710336
##########                DOCK_Rotatable_Bonds:                   6
##########                         Heavy_Atoms:                  31
##########                    Molecular_Weight:             420.555
##########                DOCK_Rotatable_Bonds:                   6
##########                       Formal_Charge:         1.49012e-07
##########                     HBond_Acceptors:                   6
##########                        HBond_Donors:                   1
##########                         Heavy_Atoms:                  31
##########                          Grid_Score:          -27.284603
##########                     Grid_vdw_energy:          -27.701160
##########                      Grid_es_energy:            0.416558
##########           Internal_energy_repulsive:           58.604401

@<TRIPOS>MOLECULE
ZINC000486710336
 63 67 1 0 0
SMALL
USER_CHARGES


@<TRIPOS>ATOM
      1 C1         -7.7183   -0.4018   59.0827 C.3     1  ZINC000486710336    0.1000
      2 N2         -7.4257    0.6378   60.0725 N.pl3   1  ZINC000486710336   -0.3900
      3 N3         -7.2698    0.4443   61.4510 N.2     1  ZINC000486710336   -0.2800
      4 C4         -7.0168    1.6024   62.0052 C.2     1  ZINC000486710336    0.1000
      5 C5         -6.7818    1.8436   63.4741 C.3     1  ZINC000486710336   -0.0100
      6 C6         -7.2894    3.2493   63.8807 C.3     1  ZINC000486710336   -0.1200
      7 C7         -7.5400    3.0955   65.4014 C.3     1  ZINC000486710336   -0.1200
      8 C8         -8.1127    1.6707   65.5484 C.3     1  ZINC000486710336   -0.1200
      9 C9         -7.6305    0.8747   64.3229 C.3     1  ZINC000486710336   -0.1100
     10 C10        -7.0017    2.5775   61.0050 C.2     1  ZINC000486710336   -0.2600
     11 C11        -7.2516    1.9606   59.8165 C.2     1  ZINC000486710336    0.3000
     12 N12        -7.3230    2.5743   58.5691 N.am    1  ZINC000486710336   -0.6200
     13 C13        -6.2162    3.1094   58.0170 C.2     1  ZINC000486710336    0.5100
     14 O14        -5.1571    3.0576   58.6080 O.2     1  ZINC000486710336   -0.4800
     15 C15        -6.2925    3.7662   56.6783 C.2     1  ZINC000486710336    0.5300
     16 O16        -5.4513    4.5779   56.3518 O.2     1  ZINC000486710336   -0.5100
     17 N17        -7.2954    3.4578   55.8325 N.am    1  ZINC000486710336   -0.5800
     18 C18        -8.3850    2.4997   56.0926 C.3     1  ZINC000486710336    0.1000
     19 C19        -9.2659    2.4559   54.8243 C.3     1  ZINC000486710336   -0.0600
     20 H20       -10.1169    3.1301   54.9212 H       1  ZINC000486710336    0.1000
     21 C21        -9.7298    1.0497   54.5441 C.ar    1  ZINC000486710336   -0.0700
     22 C22       -10.1372    0.6970   53.2711 C.ar    1  ZINC000486710336   -0.1100
     23 C23       -10.5627   -0.5928   53.0141 C.ar    1  ZINC000486710336   -0.1200
     24 C24       -10.5805   -1.5301   54.0300 C.ar    1  ZINC000486710336   -0.1200
     25 C25       -10.1723   -1.1777   55.3028 C.ar    1  ZINC000486710336   -0.1200
     26 C26        -9.7427    0.1110   55.5588 C.ar    1  ZINC000486710336   -0.1100
     27 C27        -8.2904    2.9526   53.7134 C.3     1  ZINC000486710336   -0.0800
     28 H28        -8.8105    3.3674   52.8500 H       1  ZINC000486710336    0.1100
     29 C29        -7.4054    1.7602   53.3441 C.3     1  ZINC000486710336   -0.1100
     30 C30        -6.1641    2.2243   52.5860 C.3     1  ZINC000486710336   -0.1200
     31 C31        -5.3470    3.1446   53.4992 C.3     1  ZINC000486710336   -0.1100
     32 C32        -6.1878    4.3814   53.8160 C.3     1  ZINC000486710336   -0.1400
     33 C33        -7.4984    4.0203   54.4948 C.3     1  ZINC000486710336    0.1400
     34 H34        -8.0983    4.9249   54.5953 H       1  ZINC000486710336    0.0800
     35 H35        -6.7840   -0.8176   58.7056 H       1  ZINC000486710336    0.0800
     36 H36        -8.3059   -1.1925   59.5491 H       1  ZINC000486710336    0.1000
     37 H37        -8.2826    0.0314   58.2569 H       1  ZINC000486710336    0.0800
     38 H38        -5.7240    1.7338   63.7132 H       1  ZINC000486710336    0.0900
     39 H39        -6.5279    4.0053   63.6892 H       1  ZINC000486710336    0.0700
     40 H40        -8.2155    3.4914   63.3592 H       1  ZINC000486710336    0.0800
     41 H41        -6.6049    3.1896   65.9536 H       1  ZINC000486710336    0.0700
     42 H42        -8.2633    3.8348   65.7455 H       1  ZINC000486710336    0.0700
     43 H43        -7.7389    1.2105   66.4631 H       1  ZINC000486710336    0.0600
     44 H44        -9.2019    1.7060   65.5658 H       1  ZINC000486710336    0.0600
     45 H45        -8.4860    0.5237   63.7456 H       1  ZINC000486710336    0.0700
     46 H46        -7.0230    0.0282   64.6429 H       1  ZINC000486710336    0.0700
     47 H47        -6.8200    3.6324   61.1481 H       1  ZINC000486710336    0.1700
     48 H48        -8.1695    2.6168   58.0973 H       1  ZINC000486710336    0.4200
     49 H49        -7.9706    1.5112   56.2908 H       1  ZINC000486710336    0.0900
     50 H50        -8.9774    2.8339   56.9444 H       1  ZINC000486710336    0.0800
     51 H51       -10.1233    1.4294   52.4775 H       1  ZINC000486710336    0.1200
     52 H52       -10.8816   -0.8681   52.0197 H       1  ZINC000486710336    0.1200
     53 H53       -10.9136   -2.5377   53.8293 H       1  ZINC000486710336    0.1200
     54 H54       -10.1866   -1.9099   56.0966 H       1  ZINC000486710336    0.1200
     55 H55        -9.4238    0.3864   56.5532 H       1  ZINC000486710336    0.1200
     56 H56        -7.0985    1.2453   54.2545 H       1  ZINC000486710336    0.0700
     57 H57        -7.9729    1.0725   52.7172 H       1  ZINC000486710336    0.0700
     58 H58        -5.5625    1.3598   52.3053 H       1  ZINC000486710336    0.0600
     59 H59        -6.4645    2.7698   51.6914 H       1  ZINC000486710336    0.0600
     60 H60        -5.1017    2.6210   54.4231 H       1  ZINC000486710336    0.0500
     61 H61        -4.4298    3.4444   52.9922 H       1  ZINC000486710336    0.0600
     62 H62        -5.6191    5.0416   54.4708 H       1  ZINC000486710336    0.1000
     63 H63        -6.4127    4.9074   52.8882 H       1  ZINC000486710336    0.0700
@<TRIPOS>BOND
     1     1     2    1
     2     1    35    1
     3     1    36    1
     4     1    37    1
     5     2    11    1
     6     2     3    1
     7     3     4    2
     8     4     5    1
     9     4    10    1
    10     5     9    1
    11     5     6    1
    12     5    38    1
    13     6     7    1
    14     6    39    1
    15     6    40    1
    16     7     8    1
    17     7    41    1
    18     7    42    1
    19     8     9    1
    20     8    43    1
    21     8    44    1
    22     9    45    1
    23     9    46    1
    24    10    11    2
    25    10    47    1
    26    11    12    1
    27    12    13   am
    28    12    48    1
    29    13    14    2
    30    13    15    1
    31    15    16    2
    32    15    17   am
    33    17    33    1
    34    17    18    1
    35    18    19    1
    36    18    49    1
    37    18    50    1
    38    19    20    1
    39    19    21    1
    40    19    27    1
    41    21    26   ar
    42    21    22   ar
    43    22    23   ar
    44    22    51    1
    45    23    24   ar
    46    23    52    1
    47    24    25   ar
    48    24    53    1
    49    25    26   ar
    50    25    54    1
    51    26    55    1
    52    27    28    1
    53    27    33    1
    54    27    29    1
    55    29    30    1
    56    29    56    1
    57    29    57    1
    58    30    31    1
    59    30    58    1
    60    30    59    1
    61    31    32    1
    62    31    60    1
    63    31    61    1
    64    32    33    1
    65    32    62    1
    66    32    63    1
    67    33    34    1
@<TRIPOS>SUBSTRUCTURE
     1 ZINC000486710336        1 TEMP              0 ****  ****    0 ROOT


##########                                Name:    ZINC001060733018
##########                DOCK_Rotatable_Bonds:                   7
##########                         Heavy_Atoms:                  24
##########                    Molecular_Weight:             342.429
##########                DOCK_Rotatable_Bonds:                   7
##########                       Formal_Charge:           0.0200001
##########                     HBond_Acceptors:                   6
##########                        HBond_Donors:                   2
##########                         Heavy_Atoms:                  24
##########                          Grid_Score:          -27.246157
##########                     Grid_vdw_energy:          -23.663397
##########                      Grid_es_energy:           -3.582760
##########           Internal_energy_repulsive:            6.213412

@<TRIPOS>MOLECULE
ZINC001060733018
 52 54 1 0 0
SMALL
USER_CHARGES


@<TRIPOS>ATOM
      1 O1         -6.2291    3.4658   51.8404 O.2     1  ZINC001060733018   -0.5000
      2 C2         -5.3651    2.7310   52.2697 C.2     1  ZINC001060733018    0.4700
      3 N3         -4.8273    2.9608   53.4841 N.am    1  ZINC001060733018   -0.7100
      4 C4         -5.2835    4.1005   54.2835 C.3     1  ZINC001060733018    0.1200
      5 C5         -5.2579    3.7260   55.7667 C.3     1  ZINC001060733018   -0.1000
      6 H6         -4.2852    3.3031   56.0180 H       1  ZINC001060733018    0.0800
      7 C7         -5.5044    4.9766   56.6129 C.3     1  ZINC001060733018   -0.1100
      8 C8         -5.4787    4.6020   58.0961 C.3     1  ZINC001060733018   -0.1300
      9 C9         -6.5722    3.5703   58.3805 C.3     1  ZINC001060733018    0.1400
     10 H10        -7.5450    3.9932   58.1292 H       1  ZINC001060733018    0.0900
     11 N11        -6.5478    3.2117   59.8007 N.am    1  ZINC001060733018   -0.7300
     12 C12        -7.6592    2.7332   60.3942 C.2     1  ZINC001060733018    0.5200
     13 O13        -8.6792    2.5982   59.7522 O.2     1  ZINC001060733018   -0.5400
     14 C14        -7.6344    2.3661   61.8556 C.3     1  ZINC001060733018   -0.1000
     15 H15        -6.8819    2.9653   62.3681 H       1  ZINC001060733018    0.1000
     16 C16        -7.2923    0.8827   62.0029 C.3     1  ZINC001060733018   -0.1100
     17 C17        -7.1923    0.5183   63.4849 C.3     1  ZINC001060733018   -0.1200
     18 C18        -8.5535    0.7290   64.1551 C.3     1  ZINC001060733018   -0.0800
     19 C19        -8.9953    2.1788   63.9348 C.3     1  ZINC001060733018   -0.1300
     20 C20        -8.6094    3.2078   64.9970 C.3     1  ZINC001060733018   -0.1700
     21 C21       -10.0629    2.7470   64.8688 C.3     1  ZINC001060733018   -0.1700
     22 C22        -9.0099    2.6362   62.4733 C.3     1  ZINC001060733018   -0.0600
     23 C23        -6.3259    2.3197   57.5343 C.3     1  ZINC001060733018   -0.1200
     24 C24        -6.3514    2.6943   56.0511 C.3     1  ZINC001060733018   -0.1100
     25 C25        -4.8971    1.5576   51.4482 C.3     1  ZINC001060733018    0.2600
     26 F26        -5.9469    1.1045   50.6421 F       1  ZINC001060733018   -0.1700
     27 F27        -3.8253    1.9518   50.6401 F       1  ZINC001060733018   -0.1900
     28 H28        -4.1382    2.3714   53.8287 H       1  ZINC001060733018    0.4100
     29 H29        -4.6242    4.9515   54.1123 H       1  ZINC001060733018    0.0800
     30 H30        -6.3003    4.3644   53.9929 H       1  ZINC001060733018    0.0800
     31 H31        -4.7253    5.7116   56.4103 H       1  ZINC001060733018    0.0700
     32 H32        -6.4770    5.3995   56.3616 H       1  ZINC001060733018    0.0700
     33 H33        -5.6543    5.4930   58.6989 H       1  ZINC001060733018    0.0700
     34 H34        -4.5061    4.1792   58.3473 H       1  ZINC001060733018    0.0600
     35 H35        -5.7316    3.3186   60.3139 H       1  ZINC001060733018    0.4000
     36 H36        -8.0723    0.2827   61.5342 H       1  ZINC001060733018    0.0700
     37 H37        -6.3382    0.6809   61.5161 H       1  ZINC001060733018    0.0700
     38 H38        -6.8967   -0.5263   63.5831 H       1  ZINC001060733018    0.0700
     39 H39        -6.4482    1.1532   63.9658 H       1  ZINC001060733018    0.0700
     40 H40        -9.2861    0.0531   63.7141 H       1  ZINC001060733018    0.0700
     41 H41        -8.4689    0.5315   65.2236 H       1  ZINC001060733018    0.0700
     42 H42        -8.0432    2.8539   65.8586 H       1  ZINC001060733018    0.0900
     43 H43        -8.3689    4.2155   64.6579 H       1  ZINC001060733018    0.0900
     44 H44       -10.7788    3.4514   64.4454 H       1  ZINC001060733018    0.0900
     45 H45       -10.4533    2.0897   65.6458 H       1  ZINC001060733018    0.0900
     46 H46        -9.2279    3.7031   62.4268 H       1  ZINC001060733018    0.0700
     47 H47        -9.7716    2.0819   61.9249 H       1  ZINC001060733018    0.0800
     48 H48        -7.1048    1.5847   57.7369 H       1  ZINC001060733018    0.0700
     49 H49        -5.3531    1.8968   57.7856 H       1  ZINC001060733018    0.0700
     50 H50        -7.3241    3.1170   55.7998 H       1  ZINC001060733018    0.0700
     51 H51        -6.1759    1.8033   55.4482 H       1  ZINC001060733018    0.0700
     52 H52        -4.5758    0.7546   52.1117 H       1  ZINC001060733018    0.1400
@<TRIPOS>BOND
     1     1     2    2
     2     2     3   am
     3     2    25    1
     4     3     4    1
     5     3    28    1
     6     4     5    1
     7     4    29    1
     8     4    30    1
     9     5     6    1
    10     5    24    1
    11     5     7    1
    12     7     8    1
    13     7    31    1
    14     7    32    1
    15     8     9    1
    16     8    33    1
    17     8    34    1
    18     9    10    1
    19     9    11    1
    20     9    23    1
    21    11    12   am
    22    11    35    1
    23    12    13    2
    24    12    14    1
    25    14    15    1
    26    14    22    1
    27    14    16    1
    28    16    17    1
    29    16    36    1
    30    16    37    1
    31    17    18    1
    32    17    38    1
    33    17    39    1
    34    18    19    1
    35    18    40    1
    36    18    41    1
    37    19    21    1
    38    19    20    1
    39    19    22    1
    40    20    21    1
    41    20    42    1
    42    20    43    1
    43    21    44    1
    44    21    45    1
    45    22    46    1
    46    22    47    1
    47    23    24    1
    48    23    48    1
    49    23    49    1
    50    24    50    1
    51    24    51    1
    52    25    26    1
    53    25    27    1
    54    25    52    1
@<TRIPOS>SUBSTRUCTURE
     1 ZINC001060733018        1 TEMP              0 ****  ****    0 ROOT


##########                                Name:    ZINC000007167963
##########                DOCK_Rotatable_Bonds:                   8
##########                         Heavy_Atoms:                  25
##########                    Molecular_Weight:             378.433
##########                DOCK_Rotatable_Bonds:                   8
##########                       Formal_Charge:        -1.01328e-06
##########                     HBond_Acceptors:                  10
##########                        HBond_Donors:                   3
##########                         Heavy_Atoms:                  25
##########                          Grid_Score:          -27.223211
##########                     Grid_vdw_energy:          -26.632259
##########                      Grid_es_energy:           -0.590953
##########           Internal_energy_repulsive:            8.431568

@<TRIPOS>MOLECULE
ZINC000007167963
 39 41 1 0 0
SMALL
USER_CHARGES


@<TRIPOS>ATOM
      1 C1        -14.8280   -0.4095   55.5777 C.3     1  ZINC000007167963   -0.0800
      2 C2        -15.3956   -1.5139   56.4317 C.2     1  ZINC000007167963    0.0900
      3 C3        -14.6839   -2.5223   57.0052 C.2     1  ZINC000007167963   -0.1500
      4 C4        -13.2260   -2.7485   56.9164 C.2     1  ZINC000007167963    0.2600
      5 N5        -12.5522   -3.7074   57.5034 N.2     1  ZINC000007167963   -0.2700
      6 N6        -11.3056   -3.5990   57.2047 N.2     1  ZINC000007167963   -0.2800
      7 C7        -11.1335   -2.5662   56.4148 C.2     1  ZINC000007167963    0.1200
      8 S8         -9.6030   -2.0141   55.7387 S.3     1  ZINC000007167963    0.1500
      9 C9        -10.1522   -0.4995   54.9135 C.3     1  ZINC000007167963   -0.1200
     10 H10       -11.1127   -0.6771   54.4299 H       1  ZINC000007167963    0.1400
     11 C11       -10.3004    0.6191   55.9467 C.3     1  ZINC000007167963   -0.1500
     12 C12        -9.1353   -0.0949   53.8775 C.2     1  ZINC000007167963    0.5300
     13 O13        -9.1027   -0.6622   52.8060 O.2     1  ZINC000007167963   -0.4900
     14 N14        -8.2622    0.8972   54.1418 N.am    1  ZINC000007167963   -0.6100
     15 C15        -7.3276    1.2705   53.1878 C.2     1  ZINC000007167963    0.0800
     16 C16        -7.2436    2.5178   52.6254 C.2     1  ZINC000007167963   -0.2400
     17 C17        -8.1427    3.6243   52.9675 C.2     1  ZINC000007167963    0.5900
     18 N18        -9.4762    3.4718   52.8449 N.am    1  ZINC000007167963   -0.8400
     19 O19        -7.6848    4.6806   53.3624 O.2     1  ZINC000007167963   -0.5600
     20 C20        -6.1728    2.6262   51.6591 C.2     1  ZINC000007167963   -0.0900
     21 C21        -5.4886    1.5007   51.5107 C.2     1  ZINC000007167963   -0.2800
     22 S22        -6.1212    0.2438   52.5590 S.3     1  ZINC000007167963    0.3000
     23 O23       -12.3430   -2.0083   56.2105 O.3     1  ZINC000007167963   -0.2000
     24 C24       -15.6654   -3.3387   57.7314 C.2     1  ZINC000007167963   -0.1800
     25 C25       -16.8569   -2.7529   57.5290 C.2     1  ZINC000007167963   -0.0300
     26 O26       -16.6864   -1.6667   56.7603 O.3     1  ZINC000007167963   -0.1700
     27 H27       -15.6321    0.2553   55.2620 H       1  ZINC000007167963    0.0800
     28 H28       -14.0950    0.1551   56.1538 H       1  ZINC000007167963    0.1000
     29 H29       -14.3467   -0.8400   54.6996 H       1  ZINC000007167963    0.1000
     30 H30       -11.0359    0.3265   56.6961 H       1  ZINC000007167963    0.0900
     31 H31        -9.3399    0.7967   56.4303 H       1  ZINC000007167963    0.0800
     32 H32       -10.6312    1.5311   55.4498 H       1  ZINC000007167963    0.0800
     33 H33        -8.2876    1.3500   54.9992 H       1  ZINC000007167963    0.4400
     34 H34       -10.0708    4.2044   53.0702 H       1  ZINC000007167963    0.4000
     35 H35        -9.8413    2.6297   52.5314 H       1  ZINC000007167963    0.4100
     36 H36        -5.9535    3.5319   51.1133 H       1  ZINC000007167963    0.1500
     37 H37        -4.6525    1.3755   50.8386 H       1  ZINC000007167963    0.1700
     38 H38       -15.4690   -4.2294   58.3098 H       1  ZINC000007167963    0.1600
     39 H39       -17.8003   -3.0986   57.9252 H       1  ZINC000007167963    0.2200
@<TRIPOS>BOND
     1     1     2    1
     2     1    27    1
     3     1    28    1
     4     1    29    1
     5     2    26    1
     6     2     3    2
     7     3     4    1
     8     3    24    1
     9     4    23    1
    10     4     5    2
    11     5     6    1
    12     6     7    2
    13     7     8    1
    14     7    23    1
    15     8     9    1
    16     9    10    1
    17     9    11    1
    18     9    12    1
    19    11    30    1
    20    11    31    1
    21    11    32    1
    22    12    13    2
    23    12    14   am
    24    14    15    1
    25    14    33    1
    26    15    22    1
    27    15    16    2
    28    16    17    1
    29    16    20    1
    30    17    18   am
    31    17    19    2
    32    18    34    1
    33    18    35    1
    34    20    21    2
    35    20    36    1
    36    21    22    1
    37    21    37    1
    38    24    25    2
    39    24    38    1
    40    25    26    1
    41    25    39    1
@<TRIPOS>SUBSTRUCTURE
     1 ZINC000007167963        1 TEMP              0 ****  ****    0 ROOT


##########                                Name:    ZINC000516003207
##########                DOCK_Rotatable_Bonds:                   5
##########                         Heavy_Atoms:                  24
##########                    Molecular_Weight:             342.462
##########                DOCK_Rotatable_Bonds:                   5
##########                       Formal_Charge:          -0.0200001
##########                     HBond_Acceptors:                   5
##########                        HBond_Donors:                   1
##########                         Heavy_Atoms:                  24
##########                          Grid_Score:          -27.213472
##########                     Grid_vdw_energy:          -26.156183
##########                      Grid_es_energy:           -1.057289
##########           Internal_energy_repulsive:            9.606061

@<TRIPOS>MOLECULE
ZINC000516003207
 46 49 1 0 0
SMALL
USER_CHARGES


@<TRIPOS>ATOM
      1 C1         -8.7133   -0.6505   66.2897 C.3     1  ZINC000516003207    0.0300
      2 O2         -8.8591   -0.3378   64.9030 O.3     1  ZINC000516003207   -0.3600
      3 C3         -8.3547    0.9493   64.5413 C.3     1  ZINC000516003207    0.0900
      4 H4         -8.3896    1.6646   65.3631 H       1  ZINC000516003207    0.0800
      5 C5         -6.9943    0.9002   63.8223 C.3     1  ZINC000516003207   -0.1700
      6 C6         -7.7784    0.7967   62.5014 C.3     1  ZINC000516003207    0.1500
      7 H7         -8.0011   -0.2279   62.2040 H       1  ZINC000516003207    0.1200
      8 N8         -7.2059    1.5941   61.4138 N.am    1  ZINC000516003207   -0.7200
      9 C9         -7.4649    1.2691   60.1317 C.2     1  ZINC000516003207    0.5600
     10 O10        -8.1745    0.3155   59.8778 O.2     1  ZINC000516003207   -0.5300
     11 C11        -6.8857    2.0728   59.0339 C.ar    1  ZINC000516003207   -0.1400
     12 C12        -6.0526    3.1552   59.3232 C.ar    1  ZINC000516003207   -0.0800
     13 C13        -5.5120    3.9062   58.2984 C.ar    1  ZINC000516003207   -0.1200
     14 C14        -5.7907    3.5919   56.9828 C.ar    1  ZINC000516003207   -0.0800
     15 C15        -6.6211    2.5127   56.6807 C.ar    1  ZINC000516003207   -0.0300
     16 C16        -6.9189    2.1774   55.2665 C.2     1  ZINC000516003207    0.1100
     17 C17        -7.7712    1.1958   54.9090 C.2     1  ZINC000516003207   -0.2600
     18 S18        -7.8272    1.1426   53.1490 S.3     1  ZINC000516003207    0.1400
     19 C19        -6.7100    2.4331   53.0614 C.2     1  ZINC000516003207    0.0600
     20 C20        -6.1940    3.0372   51.7808 C.3     1  ZINC000516003207   -0.0800
     21 N21        -6.3748    2.8202   54.2433 N.2     1  ZINC000516003207   -0.4700
     22 C22        -7.1653    1.7481   57.7074 C.ar    1  ZINC000516003207   -0.0300
     23 C23        -8.9328    1.4894   63.2328 C.3     1  ZINC000516003207   -0.1100
     24 C24       -10.3875    1.2271   62.8415 C.3     1  ZINC000516003207   -0.1200
     25 C25       -10.6848    2.6582   63.3247 C.3     1  ZINC000516003207   -0.1400
     26 C26        -9.2061    2.9820   63.0439 C.3     1  ZINC000516003207   -0.1200
     27 H27        -9.2521    0.0854   66.8867 H       1  ZINC000516003207    0.0400
     28 H28        -9.1199   -1.6432   66.4831 H       1  ZINC000516003207    0.0900
     29 H29        -7.6568   -0.6322   66.5573 H       1  ZINC000516003207    0.0400
     30 H30        -6.4180    1.8206   63.9162 H       1  ZINC000516003207    0.0900
     31 H31        -6.4107    0.0093   64.0538 H       1  ZINC000516003207    0.0800
     32 H32        -6.6407    2.3559   61.6164 H       1  ZINC000516003207    0.4000
     33 H33        -5.8310    3.4057   60.3501 H       1  ZINC000516003207    0.1300
     34 H34        -4.8686    4.7431   58.5267 H       1  ZINC000516003207    0.1400
     35 H35        -5.3651    4.1835   56.1858 H       1  ZINC000516003207    0.1300
     36 H36        -8.3216    0.5555   55.5824 H       1  ZINC000516003207    0.1800
     37 H37        -6.6427    2.5240   50.9304 H       1  ZINC000516003207    0.0800
     38 H38        -6.4559    4.0947   51.7467 H       1  ZINC000516003207    0.0900
     39 H39        -5.1100    2.9299   51.7394 H       1  ZINC000516003207    0.0900
     40 H40        -7.8088    0.9117   57.4781 H       1  ZINC000516003207    0.1500
     41 H41       -10.5341    1.0877   61.7704 H       1  ZINC000516003207    0.0800
     42 H42       -10.8691    0.4542   63.4405 H       1  ZINC000516003207    0.0800
     43 H43       -11.3792    3.1998   62.6826 H       1  ZINC000516003207    0.0700
     44 H44       -10.9509    2.7156   64.3802 H       1  ZINC000516003207    0.0800
     45 H45        -8.7439    3.6110   63.8047 H       1  ZINC000516003207    0.0700
     46 H46        -9.0207    3.3359   62.0298 H       1  ZINC000516003207    0.0900
@<TRIPOS>BOND
     1     1     2    1
     2     1    27    1
     3     1    28    1
     4     1    29    1
     5     2     3    1
     6     3     4    1
     7     3    23    1
     8     3     5    1
     9     5     6    1
    10     5    30    1
    11     5    31    1
    12     6     7    1
    13     6     8    1
    14     6    23    1
    15     8     9   am
    16     8    32    1
    17     9    10    2
    18     9    11    1
    19    11    22   ar
    20    11    12   ar
    21    12    13   ar
    22    12    33    1
    23    13    14   ar
    24    13    34    1
    25    14    15   ar
    26    14    35    1
    27    15    16    1
    28    15    22   ar
    29    16    21    1
    30    16    17    2
    31    17    18    1
    32    17    36    1
    33    18    19    1
    34    19    20    1
    35    19    21    2
    36    20    37    1
    37    20    38    1
    38    20    39    1
    39    22    40    1
    40    23    26    1
    41    23    24    1
    42    24    25    1
    43    24    41    1
    44    24    42    1
    45    25    26    1
    46    25    43    1
    47    25    44    1
    48    26    45    1
    49    26    46    1
@<TRIPOS>SUBSTRUCTURE
     1 ZINC000516003207        1 TEMP              0 ****  ****    0 ROOT


##########                                Name:    ZINC001386869844
##########                DOCK_Rotatable_Bonds:                   9
##########                         Heavy_Atoms:                  25
##########                    Molecular_Weight:             345.485
##########                DOCK_Rotatable_Bonds:                   9
##########                       Formal_Charge:          -0.0300003
##########                     HBond_Acceptors:                   5
##########                        HBond_Donors:                   2
##########                         Heavy_Atoms:                  25
##########                          Grid_Score:          -27.211977
##########                     Grid_vdw_energy:          -26.528294
##########                      Grid_es_energy:           -0.683683
##########           Internal_energy_repulsive:           29.159975

@<TRIPOS>MOLECULE
ZINC001386869844
 56 58 1 0 0
SMALL
USER_CHARGES


@<TRIPOS>ATOM
      1 C1         -8.4871    2.8051   58.0528 C.3     1  ZINC001386869844    0.0600
      2 N2         -7.2366    2.1597   58.4603 N.am    1  ZINC001386869844   -0.6200
      3 C3         -5.9970    2.9378   58.5219 C.3     1  ZINC001386869844    0.1100
      4 C4         -5.3296    2.9438   57.1452 C.3     1  ZINC001386869844    0.1000
      5 N5         -4.0349    3.6237   57.2331 N.am    1  ZINC001386869844   -0.7300
      6 C6         -3.5652    4.3180   56.1775 C.2     1  ZINC001386869844    0.5200
      7 O7         -4.2121    4.3755   55.1533 O.2     1  ZINC001386869844   -0.5300
      8 C8         -2.2334    5.0174   56.2680 C.3     1  ZINC001386869844   -0.1300
      9 C9         -1.1259    4.0664   55.8098 C.3     1  ZINC001386869844   -0.0100
     10 C10        -1.1130    2.8280   56.7081 C.3     1  ZINC001386869844   -0.1500
     11 C11        -1.3834    3.6437   54.3620 C.3     1  ZINC001386869844   -0.1600
     12 C12         0.2261    4.7768   55.9009 C.3     1  ZINC001386869844   -0.1500
     13 C13         1.3512    4.0608   56.6510 C.3     1  ZINC001386869844   -0.1900
     14 C14         0.6685    5.2797   57.2766 C.3     1  ZINC001386869844   -0.1800
     15 C15        -7.2267    0.8500   58.7784 C.2     1  ZINC001386869844    0.5900
     16 O16        -6.1881    0.3139   59.1168 O.2     1  ZINC001386869844   -0.5200
     17 C17        -8.4680    0.0710   58.7167 C.2     1  ZINC001386869844   -0.0600
     18 C18        -9.2669   -0.2764   59.7877 C.2     1  ZINC001386869844   -0.0900
     19 C19       -10.3347   -1.0101   59.2774 C.2     1  ZINC001386869844   -0.1700
     20 C20       -10.1775   -1.1006   57.9300 C.2     1  ZINC001386869844    0.0500
     21 C21       -11.1369   -1.8279   57.0181 C.3     1  ZINC001386869844   -0.0600
     22 C22       -12.0129   -2.7505   57.8738 C.3     1  ZINC001386869844   -0.1100
     23 C23       -12.6006   -1.9574   59.0442 C.3     1  ZINC001386869844   -0.1200
     24 C24       -11.4861   -1.6159   60.0406 C.3     1  ZINC001386869844   -0.0500
     25 N25        -9.0515   -0.4417   57.5785 N.pl3   1  ZINC001386869844   -0.5400
     26 H26        -8.6555    2.6324   56.9898 H       1  ZINC001386869844    0.0600
     27 H27        -9.3152    2.3864   58.6246 H       1  ZINC001386869844    0.0800
     28 H28        -8.4209    3.8767   58.2408 H       1  ZINC001386869844    0.0900
     29 H29        -5.3222    2.4890   59.2509 H       1  ZINC001386869844    0.1000
     30 H30        -6.2248    3.9613   58.8197 H       1  ZINC001386869844    0.0900
     31 H31        -5.9678    3.4684   56.4343 H       1  ZINC001386869844    0.0700
     32 H32        -5.1790    1.9176   56.8099 H       1  ZINC001386869844    0.0700
     33 H33        -3.5156    3.5742   58.0509 H       1  ZINC001386869844    0.4000
     34 H34        -2.2423    5.8998   55.6283 H       1  ZINC001386869844    0.0900
     35 H35        -2.0503    5.3182   57.2995 H       1  ZINC001386869844    0.0900
     36 H36        -2.0762    2.3220   56.6432 H       1  ZINC001386869844    0.0800
     37 H37        -0.3239    2.1506   56.3816 H       1  ZINC001386869844    0.0500
     38 H38        -0.9296    3.1292   57.7395 H       1  ZINC001386869844    0.0500
     39 H39        -1.3925    4.5259   53.7221 H       1  ZINC001386869844    0.0500
     40 H40        -0.5943    2.9662   54.0356 H       1  ZINC001386869844    0.0500
     41 H41        -2.3466    3.1377   54.2971 H       1  ZINC001386869844    0.0800
     42 H42         0.5017    5.3763   55.0334 H       1  ZINC001386869844    0.1000
     43 H43         1.1281    3.0837   57.0795 H       1  ZINC001386869844    0.1000
     44 H44         2.3669    4.1896   56.2770 H       1  ZINC001386869844    0.0900
     45 H45         1.2355    6.2100   57.3139 H       1  ZINC001386869844    0.0900
     46 H46        -0.0036    5.1046   58.1166 H       1  ZINC001386869844    0.0900
     47 H47        -9.0958   -0.0268   60.8245 H       1  ZINC001386869844    0.1500
     48 H48       -11.7650   -1.1063   56.4955 H       1  ZINC001386869844    0.0800
     49 H49       -10.5775   -2.4205   56.2943 H       1  ZINC001386869844    0.0800
     50 H50       -12.8224   -3.1511   57.2637 H       1  ZINC001386869844    0.0700
     51 H51       -11.4080   -3.5714   58.2587 H       1  ZINC001386869844    0.0700
     52 H52       -13.0487   -1.0367   58.6706 H       1  ZINC001386869844    0.0600
     53 H53       -13.3628   -2.5563   59.5426 H       1  ZINC001386869844    0.0700
     54 H54       -11.1548   -2.5231   60.5459 H       1  ZINC001386869844    0.0700
     55 H55       -11.8567   -0.9006   60.7750 H       1  ZINC001386869844    0.0700
     56 H56        -8.7097   -0.3472   56.6756 H       1  ZINC001386869844    0.4200
@<TRIPOS>BOND
     1     1     2    1
     2     1    26    1
     3     1    27    1
     4     1    28    1
     5     2     3    1
     6     2    15   am
     7     3     4    1
     8     3    29    1
     9     3    30    1
    10     4     5    1
    11     4    31    1
    12     4    32    1
    13     5     6   am
    14     5    33    1
    15     6     7    2
    16     6     8    1
    17     8     9    1
    18     8    34    1
    19     8    35    1
    20     9    10    1
    21     9    11    1
    22     9    12    1
    23    10    36    1
    24    10    37    1
    25    10    38    1
    26    11    39    1
    27    11    40    1
    28    11    41    1
    29    12    14    1
    30    12    13    1
    31    12    42    1
    32    13    14    1
    33    13    43    1
    34    13    44    1
    35    14    45    1
    36    14    46    1
    37    15    16    2
    38    15    17    1
    39    17    25    1
    40    17    18    2
    41    18    19    1
    42    18    47    1
    43    19    24    1
    44    19    20    2
    45    20    21    1
    46    20    25    1
    47    21    22    1
    48    21    48    1
    49    21    49    1
    50    22    23    1
    51    22    50    1
    52    22    51    1
    53    23    24    1
    54    23    52    1
    55    23    53    1
    56    24    54    1
    57    24    55    1
    58    25    56    1
@<TRIPOS>SUBSTRUCTURE
     1 ZINC001386869844        1 TEMP              0 ****  ****    0 ROOT


##########                                Name:    ZINC000458730620
##########                DOCK_Rotatable_Bonds:                   9
##########                         Heavy_Atoms:                  25
##########                    Molecular_Weight:              375.44
##########                DOCK_Rotatable_Bonds:                   9
##########                       Formal_Charge:        -1.86265e-07
##########                     HBond_Acceptors:                   9
##########                        HBond_Donors:                   3
##########                         Heavy_Atoms:                  25
##########                          Grid_Score:          -27.206947
##########                     Grid_vdw_energy:          -26.860659
##########                      Grid_es_energy:           -0.346289
##########           Internal_energy_repulsive:           41.965210

@<TRIPOS>MOLECULE
ZINC000458730620
 48 49 1 0 0
SMALL
USER_CHARGES


@<TRIPOS>ATOM
      1 C1         -8.3543   -0.0118   60.5619 C.3     1  ZINC000458730620   -0.1600
      2 C2         -7.6287    1.2849   60.9270 C.3     1  ZINC000458730620    0.2000
      3 C3         -6.8657    1.0904   62.2389 C.3     1  ZINC000458730620   -0.1600
      4 N4         -6.6862    1.6338   59.8611 N.am    1  ZINC000458730620   -0.7400
      5 C5         -7.1374    1.8706   58.6133 C.2     1  ZINC000458730620    0.7100
      6 O6         -8.3267    1.7931   58.3720 O.2     1  ZINC000458730620   -0.5800
      7 N7         -6.2705    2.1931   57.6331 N.am    1  ZINC000458730620   -0.7500
      8 C8         -6.7612    2.4522   56.2773 C.3     1  ZINC000458730620    0.1300
      9 C9         -5.6680    3.1475   55.4634 C.3     1  ZINC000458730620    0.1000
     10 N10        -6.2684    3.8031   54.2990 N.am    1  ZINC000458730620   -1.1100
     11 S11        -6.1336    3.1134   52.7994 S.o2    1  ZINC000458730620    2.7000
     12 O12        -6.6116    1.7812   52.9262 O.2     1  ZINC000458730620   -0.9400
     13 O13        -6.6753    4.0490   51.8773 O.2     1  ZINC000458730620   -0.9400
     14 C14        -4.4143    2.9925   52.4336 C.ar    1  ZINC000458730620   -0.7300
     15 C15        -3.4931    3.6649   53.2140 C.ar    1  ZINC000458730620    0.0400
     16 C16        -2.1440    3.5705   52.9284 C.ar    1  ZINC000458730620   -0.1800
     17 C17        -1.7140    2.8021   51.8601 C.ar    1  ZINC000458730620    0.1900
     18 F18        -0.3952    2.7097   51.5815 F       1  ZINC000458730620   -0.1200
     19 C19        -2.6359    2.1279   51.0776 C.ar    1  ZINC000458730620   -0.2100
     20 C20        -3.9862    2.2190   51.3676 C.ar    1  ZINC000458730620    0.2200
     21 F21        -4.8869    1.5617   50.6048 F       1  ZINC000458730620   -0.1100
     22 C22        -8.6504    2.4115   61.0933 C.3     1  ZINC000458730620   -0.1100
     23 C23        -8.9472    2.7621   62.5609 C.3     1  ZINC000458730620   -0.1400
     24 C24        -8.9593    4.2366   62.1242 C.3     1  ZINC000458730620   -0.1400
     25 C25        -8.0430    3.8182   60.9623 C.3     1  ZINC000458730620   -0.1400
     26 H26        -9.0101   -0.3043   61.3819 H       1  ZINC000458730620    0.0600
     27 H27        -8.9471    0.1450   59.6608 H       1  ZINC000458730620    0.0500
     28 H28        -7.6226   -0.7995   60.3830 H       1  ZINC000458730620    0.0800
     29 H29        -6.1380    0.2877   62.1203 H       1  ZINC000458730620    0.0800
     30 H30        -6.3489    2.0140   62.4990 H       1  ZINC000458730620    0.0500
     31 H31        -7.5671    0.8307   63.0320 H       1  ZINC000458730620    0.0600
     32 H32        -5.7374    1.6945   60.0533 H       1  ZINC000458730620    0.3900
     33 H33        -5.3217    2.2537   57.8254 H       1  ZINC000458730620    0.4000
     34 H34        -7.0249    1.5085   55.7998 H       1  ZINC000458730620    0.0800
     35 H35        -7.6414    3.0934   56.3257 H       1  ZINC000458730620    0.0800
     36 H36        -5.1715    3.8931   56.0843 H       1  ZINC000458730620    0.0900
     37 H37        -4.9390    2.4094   55.1291 H       1  ZINC000458730620    0.0700
     38 H38        -6.7450    4.6410   54.4063 H       1  ZINC000458730620    0.4300
     39 H39        -3.8277    4.2649   54.0473 H       1  ZINC000458730620    0.1700
     40 H40        -1.4250    4.0967   53.5387 H       1  ZINC000458730620    0.1600
     41 H41        -2.3015    1.5283   50.2439 H       1  ZINC000458730620    0.1600
     42 H42        -9.5452    2.2642   60.4887 H       1  ZINC000458730620    0.1100
     43 H43        -9.9154    2.4019   62.9087 H       1  ZINC000458730620    0.0700
     44 H44        -8.1329    2.5152   63.2422 H       1  ZINC000458730620    0.0800
     45 H45        -9.9394    4.5887   61.8024 H       1  ZINC000458730620    0.0800
     46 H46        -8.4808    4.9073   62.8379 H       1  ZINC000458730620    0.0700
     47 H47        -6.9815    3.8600   61.2064 H       1  ZINC000458730620    0.0800
     48 H48        -8.2811    4.3105   60.0194 H       1  ZINC000458730620    0.0700
@<TRIPOS>BOND
     1     1     2    1
     2     1    26    1
     3     1    27    1
     4     1    28    1
     5     2     3    1
     6     2     4    1
     7     2    22    1
     8     3    29    1
     9     3    30    1
    10     3    31    1
    11     4     5   am
    12     4    32    1
    13     5     6    2
    14     5     7   am
    15     7     8    1
    16     7    33    1
    17     8     9    1
    18     8    34    1
    19     8    35    1
    20     9    10    1
    21     9    36    1
    22     9    37    1
    23    10    11   am
    24    10    38    1
    25    11    12    2
    26    11    13    2
    27    11    14    1
    28    14    20   ar
    29    14    15   ar
    30    15    16   ar
    31    15    39    1
    32    16    17   ar
    33    16    40    1
    34    17    18    1
    35    17    19   ar
    36    19    20   ar
    37    19    41    1
    38    20    21    1
    39    22    25    1
    40    22    23    1
    41    22    42    1
    42    23    24    1
    43    23    43    1
    44    23    44    1
    45    24    25    1
    46    24    45    1
    47    24    46    1
    48    25    47    1
    49    25    48    1
@<TRIPOS>SUBSTRUCTURE
     1 ZINC000458730620        1 TEMP              0 ****  ****    0 ROOT


##########                                Name:    ZINC001067560454
##########                DOCK_Rotatable_Bonds:                   4
##########                         Heavy_Atoms:                  25
##########                    Molecular_Weight:             342.444
##########                DOCK_Rotatable_Bonds:                   4
##########                       Formal_Charge:          0.00999971
##########                     HBond_Acceptors:                   7
##########                        HBond_Donors:                   1
##########                         Heavy_Atoms:                  25
##########                          Grid_Score:          -27.197874
##########                     Grid_vdw_energy:          -26.661491
##########                      Grid_es_energy:           -0.536382
##########           Internal_energy_repulsive:           14.242132

@<TRIPOS>MOLECULE
ZINC001067560454
 51 54 1 0 0
SMALL
USER_CHARGES


@<TRIPOS>ATOM
      1 C1        -10.8146    1.2044   53.0543 C.3     1  ZINC001067560454   -0.1500
      2 C2        -10.8515    1.0466   54.5757 C.3     1  ZINC001067560454    0.1000
      3 H3        -11.0869    2.0068   55.0348 H       1  ZINC001067560454    0.0600
      4 C4        -11.9234    0.0228   54.9563 C.3     1  ZINC001067560454   -0.1200
      5 C5        -11.9430   -0.1467   56.4779 C.3     1  ZINC001067560454    0.1400
      6 H6        -12.2087    0.8009   56.9466 H       1  ZINC001067560454    0.0900
      7 N7        -12.9282   -1.1672   56.8442 N.am    1  ZINC001067560454   -0.7200
      8 C8        -13.5467   -1.1082   58.0402 C.2     1  ZINC001067560454    0.5400
      9 O9        -13.2867   -0.2111   58.8137 O.2     1  ZINC001067560454   -0.5300
     10 C10       -14.5615   -2.1570   58.4163 C.3     1  ZINC001067560454   -0.1100
     11 C11       -14.7123   -2.3220   59.9298 C.3     1  ZINC001067560454   -0.1300
     12 C12       -15.9005   -2.0127   57.6739 C.3     1  ZINC001067560454   -0.1200
     13 C13       -15.3001   -2.9100   56.5788 C.3     1  ZINC001067560454   -0.1400
     14 C14       -14.3792   -3.4874   57.6667 C.3     1  ZINC001067560454   -0.1200
     15 C15       -10.5537   -0.5808   56.9532 C.3     1  ZINC001067560454   -0.1200
     16 C16        -9.5215    0.4605   56.5148 C.3     1  ZINC001067560454    0.0600
     17 N17        -9.5412    0.5849   55.0516 N.3     1  ZINC001067560454   -0.4900
     18 C18        -8.5309    1.4220   54.6114 C.ar    1  ZINC001067560454    0.4400
     19 C19        -7.6194    0.9947   53.6310 C.ar    1  ZINC001067560454   -0.0800
     20 N20        -7.4475   -0.1475   52.9233 N.2     1  ZINC001067560454   -0.4700
     21 C21        -6.4267   -0.0141   52.1271 C.2     1  ZINC001067560454    0.2700
     22 N22        -5.8791    1.2254   52.2754 N.pl3   1  ZINC001067560454   -0.4800
     23 C23        -4.7181    1.7522   51.5538 C.3     1  ZINC001067560454    0.0800
     24 C24        -6.6152    1.8895   53.2238 C.ar    1  ZINC001067560454    0.2800
     25 N25        -6.5641    3.0974   53.7754 N.ar    1  ZINC001067560454   -0.5200
     26 C26        -7.4401    3.4546   54.6909 C.ar    1  ZINC001067560454    0.3300
     27 N27        -8.4033    2.6505   55.1021 N.ar    1  ZINC001067560454   -0.5100
     28 H28       -10.5790    0.2443   52.5950 H       1  ZINC001067560454    0.0700
     29 H29       -11.7869    1.5475   52.7009 H       1  ZINC001067560454    0.0700
     30 H30       -10.0514    1.9339   52.7831 H       1  ZINC001067560454    0.0500
     31 H31       -12.8981    0.3731   54.6165 H       1  ZINC001067560454    0.0800
     32 H32       -11.6958   -0.9341   54.4865 H       1  ZINC001067560454    0.0800
     33 H33       -13.1352   -1.8854   56.2260 H       1  ZINC001067560454    0.4000
     34 H34       -14.8639   -1.3449   60.3885 H       1  ZINC001067560454    0.0600
     35 H35       -15.5702   -2.9601   60.1420 H       1  ZINC001067560454    0.0700
     36 H36       -13.8103   -2.7786   60.3372 H       1  ZINC001067560454    0.0600
     37 H37       -16.7414   -2.4668   58.1981 H       1  ZINC001067560454    0.0900
     38 H38       -16.1075   -0.9959   57.3404 H       1  ZINC001067560454    0.0700
     39 H39       -16.0054   -3.6356   56.1736 H       1  ZINC001067560454    0.0700
     40 H40       -14.7682   -2.3574   55.8045 H       1  ZINC001067560454    0.0800
     41 H41       -13.3580   -3.6609   57.3273 H       1  ZINC001067560454    0.0800
     42 H42       -14.8042   -4.3445   58.1889 H       1  ZINC001067560454    0.0900
     43 H43       -10.5498   -0.6617   58.0401 H       1  ZINC001067560454    0.0800
     44 H44       -10.3045   -1.5472   56.5147 H       1  ZINC001067560454    0.0800
     45 H45        -9.7633    1.4234   56.9646 H       1  ZINC001067560454    0.0700
     46 H46        -8.5291    0.1473   56.8391 H       1  ZINC001067560454    0.0800
     47 H47        -6.0662   -0.7737   51.4492 H       1  ZINC001067560454    0.2300
     48 H48        -5.0508    2.2445   50.6399 H       1  ZINC001067560454    0.0800
     49 H49        -4.1943    2.4712   52.1838 H       1  ZINC001067560454    0.0900
     50 H50        -4.0451    0.9329   51.3008 H       1  ZINC001067560454    0.0900
     51 H51        -7.3704    4.4436   55.1191 H       1  ZINC001067560454    0.2100
@<TRIPOS>BOND
     1     1     2    1
     2     1    28    1
     3     1    29    1
     4     1    30    1
     5     2     3    1
     6     2    17    1
     7     2     4    1
     8     4     5    1
     9     4    31    1
    10     4    32    1
    11     5     6    1
    12     5     7    1
    13     5    15    1
    14     7     8   am
    15     7    33    1
    16     8     9    2
    17     8    10    1
    18    10    14    1
    19    10    11    1
    20    10    12    1
    21    11    34    1
    22    11    35    1
    23    11    36    1
    24    12    13    1
    25    12    37    1
    26    12    38    1
    27    13    14    1
    28    13    39    1
    29    13    40    1
    30    14    41    1
    31    14    42    1
    32    15    16    1
    33    15    43    1
    34    15    44    1
    35    16    17    1
    36    16    45    1
    37    16    46    1
    38    17    18    1
    39    18    27   ar
    40    18    19   ar
    41    19    24   ar
    42    19    20    1
    43    20    21    2
    44    21    22    1
    45    21    47    1
    46    22    23    1
    47    22    24    1
    48    23    48    1
    49    23    49    1
    50    23    50    1
    51    24    25   ar
    52    25    26   ar
    53    26    27   ar
    54    26    51    1
@<TRIPOS>SUBSTRUCTURE
     1 ZINC001067560454        1 TEMP              0 ****  ****    0 ROOT


##########                                Name:    ZINC000880838037
##########                DOCK_Rotatable_Bonds:                   9
##########                         Heavy_Atoms:                  24
##########                    Molecular_Weight:             365.477
##########                DOCK_Rotatable_Bonds:                   9
##########                       Formal_Charge:           0.0200001
##########                     HBond_Acceptors:                   8
##########                        HBond_Donors:                   3
##########                         Heavy_Atoms:                  24
##########                          Grid_Score:          -27.170191
##########                     Grid_vdw_energy:          -27.014168
##########                      Grid_es_energy:           -0.156023
##########           Internal_energy_repulsive:            9.699613

@<TRIPOS>MOLECULE
ZINC000880838037
 43 44 1 0 0
SMALL
USER_CHARGES


@<TRIPOS>ATOM
      1 C1         -7.5299    0.3613   66.8041 C.3     1  ZINC000880838037    0.0300
      2 O2         -7.7681    1.4382   65.8954 O.3     1  ZINC000880838037   -0.3100
      3 C3         -8.4144    1.1376   64.7384 C.ar    1  ZINC000880838037    0.1400
      4 C4         -9.7972    1.0218   64.7255 C.ar    1  ZINC000880838037   -0.2200
      5 C5        -10.4559    0.7162   63.5495 C.ar    1  ZINC000880838037   -0.0700
      6 C6         -9.7403    0.5244   62.3838 C.ar    1  ZINC000880838037   -0.1500
      7 C7         -8.3557    0.6386   62.3910 C.ar    1  ZINC000880838037    0.1800
      8 N8         -7.6308    0.4444   61.2100 N.am    1  ZINC000880838037   -0.6700
      9 C9         -7.6212    1.4005   60.2601 C.2     1  ZINC000880838037    0.5200
     10 O10        -8.2409    2.4292   60.4290 O.2     1  ZINC000880838037   -0.4900
     11 C11        -6.8404    1.1912   58.9883 C.3     1  ZINC000880838037   -0.0600
     12 C12        -7.7954    1.0073   57.8371 C.2     1  ZINC000880838037    0.1000
     13 C13        -7.6369    1.6219   56.6644 C.2     1  ZINC000880838037   -0.2600
     14 S14        -8.9606    1.1359   55.6085 S.3     1  ZINC000880838037    0.1300
     15 C15        -9.6024    0.1499   56.8490 C.2     1  ZINC000880838037    0.0100
     16 S16       -11.0628   -0.8260   56.7090 S.3     1  ZINC000880838037    0.1000
     17 C17       -10.7121   -2.0962   57.9498 C.3     1  ZINC000880838037   -0.1500
     18 H18        -9.9158   -1.7503   58.6088 H       1  ZINC000880838037    0.1200
     19 C19       -10.2725   -3.3843   57.2510 C.3     1  ZINC000880838037   -0.1500
     20 C20       -11.9543   -2.3633   58.7603 C.2     1  ZINC000880838037    0.5400
     21 N21       -12.9583   -3.0926   58.2342 N.am    1  ZINC000880838037   -0.8400
     22 O22       -12.0506   -1.9220   59.8857 O.2     1  ZINC000880838037   -0.5200
     23 N23        -8.8539    0.2201   57.9066 N.2     1  ZINC000880838037   -0.4200
     24 C24        -7.6933    0.9520   63.5692 C.ar    1  ZINC000880838037   -0.1500
     25 C25        -6.1914    1.0767   63.5807 C.3     1  ZINC000880838037   -0.1000
     26 H26        -6.9186   -0.3976   66.3158 H       1  ZINC000880838037    0.0600
     27 H27        -7.0081    0.7372   67.6843 H       1  ZINC000880838037    0.1000
     28 H28        -8.4813   -0.0770   67.1055 H       1  ZINC000880838037    0.0600
     29 H29       -10.3593    1.1705   65.6356 H       1  ZINC000880838037    0.1300
     30 H30       -11.5321    0.6266   63.5422 H       1  ZINC000880838037    0.1300
     31 H31       -10.2574    0.2852   61.4663 H       1  ZINC000880838037    0.1400
     32 H32        -7.1351   -0.3784   61.0751 H       1  ZINC000880838037    0.4100
     33 H33        -6.2097    2.0605   58.8019 H       1  ZINC000880838037    0.1200
     34 H34        -6.2156    0.3036   59.0874 H       1  ZINC000880838037    0.1200
     35 H35        -6.8367    2.2999   56.4069 H       1  ZINC000880838037    0.1800
     36 H36       -11.0689   -3.7302   56.5920 H       1  ZINC000880838037    0.0900
     37 H37        -9.3740   -3.1912   56.6648 H       1  ZINC000880838037    0.0800
     38 H38       -10.0613   -4.1492   57.9982 H       1  ZINC000880838037    0.0800
     39 H39       -13.7583   -3.2636   58.7554 H       1  ZINC000880838037    0.4000
     40 H40       -12.8807   -3.4466   57.3344 H       1  ZINC000880838037    0.4100
     41 H41        -5.9108    2.1072   63.3631 H       1  ZINC000880838037    0.0700
     42 H42        -5.8110    0.7961   64.5629 H       1  ZINC000880838037    0.0700
     43 H43        -5.7663    0.4169   62.8244 H       1  ZINC000880838037    0.0600
@<TRIPOS>BOND
     1     1     2    1
     2     1    26    1
     3     1    27    1
     4     1    28    1
     5     2     3    1
     6     3    24   ar
     7     3     4   ar
     8     4     5   ar
     9     4    29    1
    10     5     6   ar
    11     5    30    1
    12     6     7   ar
    13     6    31    1
    14     7     8    1
    15     7    24   ar
    16     8     9   am
    17     8    32    1
    18     9    10    2
    19     9    11    1
    20    11    12    1
    21    11    33    1
    22    11    34    1
    23    12    23    1
    24    12    13    2
    25    13    14    1
    26    13    35    1
    27    14    15    1
    28    15    16    1
    29    15    23    2
    30    16    17    1
    31    17    18    1
    32    17    19    1
    33    17    20    1
    34    19    36    1
    35    19    37    1
    36    19    38    1
    37    20    21   am
    38    20    22    2
    39    21    39    1
    40    21    40    1
    41    24    25    1
    42    25    41    1
    43    25    42    1
    44    25    43    1
@<TRIPOS>SUBSTRUCTURE
     1 ZINC000880838037        1 TEMP              0 ****  ****    0 ROOT


##########                                Name:    ZINC000854704989
##########                DOCK_Rotatable_Bonds:                   5
##########                         Heavy_Atoms:                  22
##########                    Molecular_Weight:             365.227
##########                DOCK_Rotatable_Bonds:                   5
##########                       Formal_Charge:        -1.78814e-07
##########                     HBond_Acceptors:                   5
##########                        HBond_Donors:                   1
##########                         Heavy_Atoms:                  22
##########                          Grid_Score:          -27.164389
##########                     Grid_vdw_energy:          -26.604897
##########                      Grid_es_energy:           -0.559492
##########           Internal_energy_repulsive:            6.927651

@<TRIPOS>MOLECULE
ZINC000854704989
 39 41 1 0 0
SMALL
USER_CHARGES


@<TRIPOS>ATOM
      1 O1         -1.3320    1.2720   49.8360 O.2     1  ZINC000854704989   -0.5300
      2 C2         -1.0020    2.0112   50.7428 C.2     1  ZINC000854704989    0.5700
      3 N3          0.2940    2.3449   50.9024 N.am    1  ZINC000854704989   -0.7300
      4 C4          1.3058    1.8119   49.9868 C.3     1  ZINC000854704989    0.2000
      5 C5          2.6373    1.7505   50.6901 C.2     1  ZINC000854704989   -0.0500
      6 C6          3.0295    2.4974   51.7493 C.2     1  ZINC000854704989   -0.1700
      7 C7          4.3454    2.0504   52.0142 C.2     1  ZINC000854704989    0.0000
      8 Br8         5.5006    2.6716   53.3764 Br      1  ZINC000854704989    0.0600
      9 N9          4.6032    1.1256   51.1337 N.2     1  ZINC000854704989   -0.3200
     10 O10         3.6644    0.9417   50.3941 O.3     1  ZINC000854704989    0.1300
     11 C11        -2.0230    2.5492   51.6669 C.ar    1  ZINC000854704989   -0.1300
     12 C12        -1.6382    3.3209   52.7642 C.ar    1  ZINC000854704989   -0.0900
     13 C13        -2.5962    3.8202   53.6224 C.ar    1  ZINC000854704989   -0.1200
     14 C14        -3.9355    3.5571   53.3975 C.ar    1  ZINC000854704989   -0.0900
     15 C15        -4.3238    2.7925   52.3113 C.ar    1  ZINC000854704989   -0.0800
     16 C16        -5.7852    2.5110   52.0741 C.3     1  ZINC000854704989   -0.0800
     17 H17        -5.9053    1.9818   51.1288 H       1  ZINC000854704989    0.0900
     18 C18        -6.5593    3.8318   52.0234 C.3     1  ZINC000854704989   -0.1100
     19 C19        -8.0522    3.5299   51.8599 C.3     1  ZINC000854704989   -0.1600
     20 C20        -8.5119    2.6307   53.0105 C.3     1  ZINC000854704989    0.0600
     21 O21        -7.7312    1.4339   53.0192 O.3     1  ZINC000854704989   -0.3800
     22 C22        -6.3322    1.6498   53.2156 C.3     1  ZINC000854704989    0.0700
     23 C23        -3.3766    2.2921   51.4425 C.ar    1  ZINC000854704989   -0.0500
     24 H24         0.5568    2.9379   51.6237 H       1  ZINC000854704989    0.4000
     25 H25         1.0164    0.8104   49.6687 H       1  ZINC000854704989    0.1100
     26 H26         1.3850    2.4613   49.1151 H       1  ZINC000854704989    0.1000
     27 H27         2.4680    3.2584   52.2710 H       1  ZINC000854704989    0.1900
     28 H28        -0.5929    3.5264   52.9412 H       1  ZINC000854704989    0.1200
     29 H29        -2.2997    4.4176   54.4719 H       1  ZINC000854704989    0.1300
     30 H30        -4.6814    3.9498   54.0727 H       1  ZINC000854704989    0.1300
     31 H31        -6.3983    4.3846   52.9489 H       1  ZINC000854704989    0.0700
     32 H32        -6.2127    4.4254   51.1776 H       1  ZINC000854704989    0.0700
     33 H33        -8.6165    4.4622   51.8784 H       1  ZINC000854704989    0.0800
     34 H34        -8.2190    3.0208   50.9107 H       1  ZINC000854704989    0.0700
     35 H35        -8.3824    3.1562   53.9566 H       1  ZINC000854704989    0.0500
     36 H36        -9.5636    2.3777   52.8761 H       1  ZINC000854704989    0.1000
     37 H37        -5.8148    0.6906   53.2293 H       1  ZINC000854704989    0.1000
     38 H38        -6.1730    2.1625   54.1642 H       1  ZINC000854704989    0.0500
     39 H39        -3.6810    1.6959   50.5949 H       1  ZINC000854704989    0.1400
@<TRIPOS>BOND
     1     1     2    2
     2     2     3   am
     3     2    11    1
     4     3     4    1
     5     3    24    1
     6     4     5    1
     7     4    25    1
     8     4    26    1
     9     5    10    1
    10     5     6    2
    11     6     7    1
    12     6    27    1
    13     7     8    1
    14     7     9    2
    15     9    10    1
    16    11    23   ar
    17    11    12   ar
    18    12    13   ar
    19    12    28    1
    20    13    14   ar
    21    13    29    1
    22    14    15   ar
    23    14    30    1
    24    15    16    1
    25    15    23   ar
    26    16    17    1
    27    16    22    1
    28    16    18    1
    29    18    19    1
    30    18    31    1
    31    18    32    1
    32    19    20    1
    33    19    33    1
    34    19    34    1
    35    20    21    1
    36    20    35    1
    37    20    36    1
    38    21    22    1
    39    22    37    1
    40    22    38    1
    41    23    39    1
@<TRIPOS>SUBSTRUCTURE
     1 ZINC000854704989        1 TEMP              0 ****  ****    0 ROOT


##########                                Name:    ZINC000822206030
##########                DOCK_Rotatable_Bonds:                   7
##########                         Heavy_Atoms:                  29
##########                    Molecular_Weight:             391.448
##########                DOCK_Rotatable_Bonds:                   7
##########                       Formal_Charge:         -0.00999995
##########                     HBond_Acceptors:                   7
##########                        HBond_Donors:                   1
##########                         Heavy_Atoms:                  29
##########                          Grid_Score:          -27.152878
##########                     Grid_vdw_energy:          -28.027988
##########                      Grid_es_energy:            0.875110
##########           Internal_energy_repulsive:           23.611055

@<TRIPOS>MOLECULE
ZINC000822206030
 51 55 1 0 0
SMALL
USER_CHARGES


@<TRIPOS>ATOM
      1 C1        -11.1540    1.1773   59.0953 C.3     1  ZINC000822206030   -0.1300
      2 C2         -9.6563    1.1762   59.2626 C.ar    1  ZINC000822206030   -0.0400
      3 C3         -9.1010    1.3401   60.5162 C.ar    1  ZINC000822206030   -0.1500
      4 C4         -7.7247    1.3397   60.6705 C.ar    1  ZINC000822206030    0.1100
      5 F5         -7.1833    1.5006   61.8977 F       1  ZINC000822206030   -0.1400
      6 C6         -6.9028    1.1742   59.5686 C.ar    1  ZINC000822206030   -0.1500
      7 C7         -7.4543    1.0100   58.3128 C.ar    1  ZINC000822206030   -0.0800
      8 C8         -8.8338    1.0048   58.1569 C.ar    1  ZINC000822206030    0.1100
      9 N9         -9.3949    0.8380   56.8848 N.am    1  ZINC000822206030   -0.5600
     10 C10        -9.5423    1.9905   55.9924 C.3     1  ZINC000822206030    0.1500
     11 C11        -8.3240    2.1034   55.1126 C.ar    1  ZINC000822206030   -0.0900
     12 C12        -8.3120    1.4945   53.8707 C.ar    1  ZINC000822206030   -0.1000
     13 C13        -7.1991    1.5951   53.0607 C.ar    1  ZINC000822206030   -0.0800
     14 C14        -6.0864    2.3115   53.4958 C.ar    1  ZINC000822206030   -0.0100
     15 C15        -4.8866    2.4235   52.6287 C.2     1  ZINC000822206030    0.2200
     16 N16        -3.7970    3.1217   52.8787 N.2     1  ZINC000822206030   -0.2900
     17 N17        -2.9900    2.9621   51.8867 N.pl3   1  ZINC000822206030   -0.2300
     18 N18        -3.5337    2.1850   51.0163 N.2     1  ZINC000822206030   -0.0500
     19 N19        -4.6983    1.8296   51.4418 N.2     1  ZINC000822206030   -0.2700
     20 C20        -6.1037    2.9227   54.7475 C.ar    1  ZINC000822206030   -0.0800
     21 C21        -7.2239    2.8202   55.5474 C.ar    1  ZINC000822206030   -0.0900
     22 C22        -9.7995   -0.3827   56.4815 C.2     1  ZINC000822206030    0.5500
     23 O23       -10.2870   -0.5269   55.3803 O.2     1  ZINC000822206030   -0.5000
     24 C24        -9.6463   -1.5684   57.3988 C.3     1  ZINC000822206030   -0.1900
     25 H25        -8.9213   -1.4493   58.2040 H       1  ZINC000822206030    0.1200
     26 C26        -9.7967   -2.9614   56.7840 C.3     1  ZINC000822206030   -0.1400
     27 C27       -10.8957   -2.4019   57.6908 C.3     1  ZINC000822206030   -0.0900
     28 H28       -10.9926   -2.8314   58.6879 H       1  ZINC000822206030    0.1100
     29 C29       -12.2053   -1.9685   57.0289 C.3     1  ZINC000822206030   -0.1100
     30 C30       -13.4504   -2.8133   57.3060 C.3     1  ZINC000822206030   -0.2000
     31 C31       -13.3106   -1.4267   57.9376 C.3     1  ZINC000822206030   -0.1200
     32 H32       -11.5320    0.1603   59.2000 H       1  ZINC000822206030    0.0900
     33 H33       -11.6044    1.8126   59.8580 H       1  ZINC000822206030    0.0700
     34 H34       -11.4090    1.5596   58.1069 H       1  ZINC000822206030    0.0700
     35 H35        -9.7404    1.4689   61.3770 H       1  ZINC000822206030    0.1400
     36 H36        -5.8297    1.1739   59.6910 H       1  ZINC000822206030    0.1400
     37 H37        -6.8128    0.8813   57.4536 H       1  ZINC000822206030    0.1400
     38 H38       -10.4281    1.8579   55.3711 H       1  ZINC000822206030    0.1000
     39 H39        -9.6473    2.8986   56.5860 H       1  ZINC000822206030    0.0900
     40 H40        -9.1751    0.9390   53.5343 H       1  ZINC000822206030    0.1300
     41 H41        -7.1906    1.1191   52.0913 H       1  ZINC000822206030    0.1400
     42 H42        -2.1109    3.3646   51.8081 H       1  ZINC000822206030    0.4800
     43 H43        -5.2437    3.4790   55.0898 H       1  ZINC000822206030    0.1300
     44 H44        -7.2386    3.2938   56.5179 H       1  ZINC000822206030    0.1400
     45 H45       -10.0066   -3.0200   55.7160 H       1  ZINC000822206030    0.1000
     46 H46        -9.1709   -3.7587   57.1849 H       1  ZINC000822206030    0.1000
     47 H47       -12.1070   -1.5264   56.0375 H       1  ZINC000822206030    0.1000
     48 H48       -14.1716   -2.9273   56.4967 H       1  ZINC000822206030    0.0900
     49 H49       -13.3366   -3.6779   57.9598 H       1  ZINC000822206030    0.0900
     50 H50       -13.1049   -1.3793   59.0069 H       1  ZINC000822206030    0.0800
     51 H51       -13.9399   -0.6287   57.5437 H       1  ZINC000822206030    0.0900
@<TRIPOS>BOND
     1     1     2    1
     2     1    32    1
     3     1    33    1
     4     1    34    1
     5     2     8   ar
     6     2     3   ar
     7     3     4   ar
     8     3    35    1
     9     4     5    1
    10     4     6   ar
    11     6     7   ar
    12     6    36    1
    13     7     8   ar
    14     7    37    1
    15     8     9    1
    16     9    10    1
    17     9    22   am
    18    10    11    1
    19    10    38    1
    20    10    39    1
    21    11    21   ar
    22    11    12   ar
    23    12    13   ar
    24    12    40    1
    25    13    14   ar
    26    13    41    1
    27    14    15    1
    28    14    20   ar
    29    15    19    1
    30    15    16    2
    31    16    17    1
    32    17    18    1
    33    17    42    1
    34    18    19    2
    35    20    21   ar
    36    20    43    1
    37    21    44    1
    38    22    23    2
    39    22    24    1
    40    24    25    1
    41    24    27    1
    42    24    26    1
    43    26    27    1
    44    26    45    1
    45    26    46    1
    46    27    28    1
    47    27    29    1
    48    29    31    1
    49    29    30    1
    50    29    47    1
    51    30    31    1
    52    30    48    1
    53    30    49    1
    54    31    50    1
    55    31    51    1
@<TRIPOS>SUBSTRUCTURE
     1 ZINC000822206030        1 TEMP              0 ****  ****    0 ROOT


##########                                Name:    ZINC000534890536
##########                DOCK_Rotatable_Bonds:                   6
##########                         Heavy_Atoms:                  30
##########                    Molecular_Weight:             411.476
##########                DOCK_Rotatable_Bonds:                   6
##########                       Formal_Charge:          0.00999957
##########                     HBond_Acceptors:                   7
##########                        HBond_Donors:                   1
##########                         Heavy_Atoms:                  30
##########                          Grid_Score:          -27.145485
##########                     Grid_vdw_energy:          -27.008293
##########                      Grid_es_energy:           -0.137191
##########           Internal_energy_repulsive:           15.740775

@<TRIPOS>MOLECULE
ZINC000534890536
 56 59 1 0 0
SMALL
USER_CHARGES


@<TRIPOS>ATOM
      1 C1          0.2455    3.7431   52.6839 C.3     1  ZINC000534890536    0.0300
      2 O2         -0.6005    2.8367   51.9734 O.3     1  ZINC000534890536   -0.3200
      3 C3         -1.9384    2.9468   52.1851 C.ar    1  ZINC000534890536    0.1300
      4 C4         -2.8324    2.3667   51.2969 C.ar    1  ZINC000534890536   -0.2100
      5 C5         -4.1919    2.4797   51.5146 C.ar    1  ZINC000534890536   -0.0700
      6 C6         -4.6618    3.1705   52.6163 C.ar    1  ZINC000534890536   -0.1100
      7 C7         -6.1454    3.2926   52.8510 C.3     1  ZINC000534890536   -0.0600
      8 H8         -6.7064    2.9209   51.9936 H       1  ZINC000534890536    0.0900
      9 C9         -6.5378    4.7573   53.1798 C.3     1  ZINC000534890536   -0.1200
     10 C10        -7.8216    4.5909   54.0199 C.3     1  ZINC000534890536    0.1000
     11 N11        -7.8039    3.2315   54.5796 N.am    1  ZINC000534890536   -0.6400
     12 C12        -8.7628    2.6893   55.3562 C.2     1  ZINC000534890536    0.7300
     13 O13        -9.7486    3.3386   55.6475 O.2     1  ZINC000534890536   -0.5700
     14 N14        -8.6289    1.4273   55.8099 N.am    1  ZINC000534890536   -0.7300
     15 C15        -9.6703    0.8385   56.6555 C.3     1  ZINC000534890536    0.1600
     16 H16       -10.6015    1.3883   56.5188 H       1  ZINC000534890536    0.1200
     17 C17        -9.8808   -0.6247   56.2584 C.3     1  ZINC000534890536   -0.1300
     18 C18       -10.7621   -1.2932   57.3204 C.3     1  ZINC000534890536   -0.1300
     19 C19        -9.9755   -1.3739   58.6293 C.3     1  ZINC000534890536    0.1100
     20 N20        -9.4146   -0.0721   58.9684 N.am    1  ZINC000534890536   -0.5600
     21 C21        -9.0229    0.1484   60.2949 C.ar    1  ZINC000534890536    0.1000
     22 C22        -7.7498   -0.2120   60.7132 C.ar    1  ZINC000534890536   -0.0800
     23 C23        -7.3658    0.0072   62.0223 C.ar    1  ZINC000534890536   -0.1200
     24 C24        -8.2481    0.5844   62.9165 C.ar    1  ZINC000534890536   -0.0800
     25 C25        -9.5181    0.9453   62.5045 C.ar    1  ZINC000534890536   -0.1500
     26 C26        -9.9071    0.7342   61.1946 C.ar    1  ZINC000534890536    0.1100
     27 F27       -11.1475    1.0869   60.7919 F       1  ZINC000534890536   -0.1300
     28 C28        -9.2496    0.9201   58.0948 C.2     1  ZINC000534890536    0.5000
     29 O29        -8.7335    1.9469   58.4829 O.2     1  ZINC000534890536   -0.5100
     30 C30        -6.5644    2.5585   54.1492 C.3     1  ZINC000534890536    0.1300
     31 C31        -3.7728    3.7492   53.5032 C.ar    1  ZINC000534890536   -0.0700
     32 C32        -2.4123    3.6346   53.2928 C.ar    1  ZINC000534890536   -0.1500
     33 H33        -0.0106    4.7674   52.4130 H       1  ZINC000534890536    0.0600
     34 H34         0.1063    3.6052   53.7562 H       1  ZINC000534890536    0.0600
     35 H35         1.2861    3.5480   52.4245 H       1  ZINC000534890536    0.1000
     36 H36        -2.4660    1.8276   50.4359 H       1  ZINC000534890536    0.1300
     37 H37        -4.8884    2.0282   50.8235 H       1  ZINC000534890536    0.1300
     38 H38        -5.7560    5.2444   53.7626 H       1  ZINC000534890536    0.0800
     39 H39        -6.7441    5.3155   52.2666 H       1  ZINC000534890536    0.0900
     40 H40        -7.8343    5.3238   54.8265 H       1  ZINC000534890536    0.0700
     41 H41        -8.6988    4.7193   53.3857 H       1  ZINC000534890536    0.0700
     42 H42        -7.8430    0.9087   55.5765 H       1  ZINC000534890536    0.4000
     43 H43       -10.3743   -0.6743   55.2878 H       1  ZINC000534890536    0.0900
     44 H44        -8.9180   -1.1333   56.2074 H       1  ZINC000534890536    0.0800
     45 H45       -11.6647   -0.7013   57.4720 H       1  ZINC000534890536    0.0800
     46 H46       -11.0313   -2.2974   56.9929 H       1  ZINC000534890536    0.1000
     47 H47       -10.6402   -1.6994   59.4296 H       1  ZINC000534890536    0.0800
     48 H48        -9.1674   -2.0971   58.5199 H       1  ZINC000534890536    0.0700
     49 H49        -7.0596   -0.6636   60.0160 H       1  ZINC000534890536    0.1300
     50 H50        -6.3750   -0.2733   62.3477 H       1  ZINC000534890536    0.1300
     51 H51        -7.9450    0.7536   63.9392 H       1  ZINC000534890536    0.1400
     52 H52       -10.2051    1.3961   63.2055 H       1  ZINC000534890536    0.1400
     53 H53        -6.7558    1.5049   53.9456 H       1  ZINC000534890536    0.0800
     54 H54        -5.7914    2.6643   54.9105 H       1  ZINC000534890536    0.0700
     55 H55        -4.1423    4.2879   54.3631 H       1  ZINC000534890536    0.1300
     56 H56        -1.7183    4.0867   53.9858 H       1  ZINC000534890536    0.1300
@<TRIPOS>BOND
     1     1     2    1
     2     1    33    1
     3     1    34    1
     4     1    35    1
     5     2     3    1
     6     3    32   ar
     7     3     4   ar
     8     4     5   ar
     9     4    36    1
    10     5     6   ar
    11     5    37    1
    12     6     7    1
    13     6    31   ar
    14     7     8    1
    15     7    30    1
    16     7     9    1
    17     9    10    1
    18     9    38    1
    19     9    39    1
    20    10    11    1
    21    10    40    1
    22    10    41    1
    23    11    12   am
    24    11    30    1
    25    12    13    2
    26    12    14   am
    27    14    15    1
    28    14    42    1
    29    15    16    1
    30    15    28    1
    31    15    17    1
    32    17    18    1
    33    17    43    1
    34    17    44    1
    35    18    19    1
    36    18    45    1
    37    18    46    1
    38    19    20    1
    39    19    47    1
    40    19    48    1
    41    20    21    1
    42    20    28   am
    43    21    26   ar
    44    21    22   ar
    45    22    23   ar
    46    22    49    1
    47    23    24   ar
    48    23    50    1
    49    24    25   ar
    50    24    51    1
    51    25    26   ar
    52    25    52    1
    53    26    27    1
    54    28    29    2
    55    30    53    1
    56    30    54    1
    57    31    32   ar
    58    31    55    1
    59    32    56    1
@<TRIPOS>SUBSTRUCTURE
     1 ZINC000534890536        1 TEMP              0 ****  ****    0 ROOT


##########                                Name:    ZINC001342629575
##########                DOCK_Rotatable_Bonds:                   9
##########                         Heavy_Atoms:                  29
##########                    Molecular_Weight:             396.533
##########                DOCK_Rotatable_Bonds:                   9
##########                       Formal_Charge:         -0.00999976
##########                     HBond_Acceptors:                   6
##########                        HBond_Donors:                   0
##########                         Heavy_Atoms:                  29
##########                          Grid_Score:          -27.122044
##########                     Grid_vdw_energy:          -27.384274
##########                      Grid_es_energy:            0.262231
##########           Internal_energy_repulsive:           15.512571

@<TRIPOS>MOLECULE
ZINC001342629575
 61 64 1 0 0
SMALL
USER_CHARGES


@<TRIPOS>ATOM
      1 C1         -7.2428    4.8451   61.0813 C.2     1  ZINC001342629575   -0.1800
      2 C2         -8.3298    4.5709   60.4035 C.2     1  ZINC001342629575   -0.1600
      3 C3         -8.2499    4.3229   58.9192 C.3     1  ZINC001342629575   -0.0800
      4 C4         -7.4801    3.0264   58.6595 C.3     1  ZINC001342629575    0.0500
      5 H5         -6.9372    2.7396   59.5601 H       1  ZINC001342629575    0.0900
      6 C6         -8.4483    1.9333   58.2870 C.2     1  ZINC001342629575    0.2000
      7 N7         -9.4126    2.0200   57.4150 N.2     1  ZINC001342629575   -0.2700
      8 N8        -10.0444    0.9029   57.3441 N.2     1  ZINC001342629575   -0.3000
      9 C9         -9.5127    0.0366   58.1740 C.2     1  ZINC001342629575    0.3400
     10 N10        -9.9245   -1.2712   58.3751 N.3     1  ZINC001342629575   -0.4300
     11 C11        -9.5417   -2.1324   57.2266 C.3     1  ZINC001342629575    0.0400
     12 C12       -10.4892   -3.3477   57.3189 C.3     1  ZINC001342629575   -0.1200
     13 C13       -11.7161   -2.8407   58.1048 C.3     1  ZINC001342629575   -0.1200
     14 C14       -11.4067   -1.3617   58.4211 C.3     1  ZINC001342629575    0.0700
     15 H15       -11.8508   -0.7109   57.6679 H       1  ZINC001342629575    0.0900
     16 C16       -11.9231   -0.9945   59.8136 C.3     1  ZINC001342629575    0.1000
     17 H17       -11.3460   -1.5222   60.5730 H       1  ZINC001342629575    0.0700
     18 C18       -13.4155   -1.3704   59.9348 C.3     1  ZINC001342629575   -0.1400
     19 C19       -13.9910   -0.1781   60.7464 C.3     1  ZINC001342629575   -0.1600
     20 C20       -13.1194    0.9876   60.2149 C.3     1  ZINC001342629575    0.0500
     21 O21       -11.8132    0.4193   60.0154 O.3     1  ZINC001342629575   -0.3700
     22 N22        -8.4741    0.6649   58.7972 N.pl3   1  ZINC001342629575   -0.4600
     23 C23        -7.5787    0.1008   59.8102 C.3     1  ZINC001342629575    0.1100
     24 C24        -8.1203    0.4209   61.2049 C.3     1  ZINC001342629575    0.0500
     25 O25        -7.1621    0.0284   62.1896 O.3     1  ZINC001342629575   -0.3800
     26 C26        -7.5649    0.3007   63.5334 C.3     1  ZINC001342629575    0.0300
     27 C27        -6.5043    3.2391   57.5310 C.ar    1  ZINC001342629575   -0.0900
     28 C28        -5.1661    2.9411   57.7090 C.ar    1  ZINC001342629575   -0.0900
     29 C29        -4.2710    3.1360   56.6739 C.ar    1  ZINC001342629575   -0.1200
     30 C30        -4.7139    3.6286   55.4606 C.ar    1  ZINC001342629575   -0.1200
     31 C31        -6.0521    3.9258   55.2823 C.ar    1  ZINC001342629575   -0.1200
     32 C32        -6.9480    3.7267   56.3161 C.ar    1  ZINC001342629575   -0.1100
     33 H33        -7.3001    5.0228   62.1450 H       1  ZINC001342629575    0.1000
     34 H34        -6.2887    4.8890   60.5771 H       1  ZINC001342629575    0.1000
     35 H35        -9.2833    4.5226   60.9085 H       1  ZINC001342629575    0.1000
     36 H36        -9.2567    4.2357   58.5107 H       1  ZINC001342629575    0.0900
     37 H37        -7.7338    5.1543   58.4393 H       1  ZINC001342629575    0.0800
     38 H38        -9.6940   -1.6022   56.2866 H       1  ZINC001342629575    0.0600
     39 H39        -8.5038   -2.4516   57.3202 H       1  ZINC001342629575    0.0800
     40 H40       -10.7862   -3.6729   56.3219 H       1  ZINC001342629575    0.0800
     41 H41       -10.0067   -4.1641   57.8561 H       1  ZINC001342629575    0.0800
     42 H42       -12.6152   -2.9170   57.4934 H       1  ZINC001342629575    0.0800
     43 H43       -11.8356   -3.4083   59.0276 H       1  ZINC001342629575    0.0800
     44 H44       -13.8814   -1.4310   58.9512 H       1  ZINC001342629575    0.0900
     45 H45       -13.5368   -2.3060   60.4809 H       1  ZINC001342629575    0.0800
     46 H46       -15.0442   -0.0177   60.5160 H       1  ZINC001342629575    0.0800
     47 H47       -13.8426   -0.3231   61.8166 H       1  ZINC001342629575    0.0800
     48 H48       -13.5192    1.3591   59.2713 H       1  ZINC001342629575    0.0600
     49 H49       -13.0732    1.7912   60.9497 H       1  ZINC001342629575    0.0900
     50 H50        -7.5204   -0.9801   59.6822 H       1  ZINC001342629575    0.1000
     51 H51        -6.5847    0.5340   59.6982 H       1  ZINC001342629575    0.1100
     52 H52        -8.3063    1.4919   61.2854 H       1  ZINC001342629575    0.0600
     53 H53        -9.0512   -0.1228   61.3667 H       1  ZINC001342629575    0.0600
     54 H54        -6.7841   -0.0263   64.2201 H       1  ZINC001342629575    0.0900
     55 H55        -7.7295    1.3714   63.6535 H       1  ZINC001342629575    0.0400
     56 H56        -8.4884   -0.2356   63.7516 H       1  ZINC001342629575    0.0400
     57 H57        -4.8201    2.5563   58.6569 H       1  ZINC001342629575    0.1300
     58 H58        -3.2255    2.9039   56.8132 H       1  ZINC001342629575    0.1200
     59 H59        -4.0145    3.7817   54.6521 H       1  ZINC001342629575    0.1200
     60 H60        -6.3981    4.3109   54.3345 H       1  ZINC001342629575    0.1200
     61 H61        -7.9935    3.9588   56.1767 H       1  ZINC001342629575    0.1200
@<TRIPOS>BOND
     1     1     2    2
     2     1    33    1
     3     1    34    1
     4     2     3    1
     5     2    35    1
     6     3     4    1
     7     3    36    1
     8     3    37    1
     9     4     5    1
    10     4     6    1
    11     4    27    1
    12     6    22    1
    13     6     7    2
    14     7     8    1
    15     8     9    2
    16     9    10    1
    17     9    22    1
    18    10    14    1
    19    10    11    1
    20    11    12    1
    21    11    38    1
    22    11    39    1
    23    12    13    1
    24    12    40    1
    25    12    41    1
    26    13    14    1
    27    13    42    1
    28    13    43    1
    29    14    15    1
    30    14    16    1
    31    16    17    1
    32    16    21    1
    33    16    18    1
    34    18    19    1
    35    18    44    1
    36    18    45    1
    37    19    20    1
    38    19    46    1
    39    19    47    1
    40    20    21    1
    41    20    48    1
    42    20    49    1
    43    22    23    1
    44    23    24    1
    45    23    50    1
    46    23    51    1
    47    24    25    1
    48    24    52    1
    49    24    53    1
    50    25    26    1
    51    26    54    1
    52    26    55    1
    53    26    56    1
    54    27    32   ar
    55    27    28   ar
    56    28    29   ar
    57    28    57    1
    58    29    30   ar
    59    29    58    1
    60    30    31   ar
    61    30    59    1
    62    31    32   ar
    63    31    60    1
    64    32    61    1
@<TRIPOS>SUBSTRUCTURE
     1 ZINC001342629575        1 TEMP              0 ****  ****    0 ROOT


##########                                Name:    ZINC000518234532
##########                DOCK_Rotatable_Bonds:                   5
##########                         Heavy_Atoms:                  25
##########                    Molecular_Weight:             408.267
##########                DOCK_Rotatable_Bonds:                   5
##########                       Formal_Charge:         -0.00999981
##########                     HBond_Acceptors:                   5
##########                        HBond_Donors:                   1
##########                         Heavy_Atoms:                  25
##########                          Grid_Score:          -27.121506
##########                     Grid_vdw_energy:          -26.930504
##########                      Grid_es_energy:           -0.191001
##########           Internal_energy_repulsive:           16.718796

@<TRIPOS>MOLECULE
ZINC000518234532
 44 46 1 0 0
SMALL
USER_CHARGES


@<TRIPOS>ATOM
      1 C1        -11.0567   -1.0901   53.0232 C.3     1  ZINC000518234532   -0.1600
      2 C2        -10.4981   -0.2332   54.1611 C.3     1  ZINC000518234532    0.1800
      3 H3        -11.3020    0.3590   54.5984 H       1  ZINC000518234532    0.1100
      4 N4         -9.9179   -1.1026   55.1876 N.am    1  ZINC000518234532   -0.7300
      5 C5        -10.1909   -0.8835   56.4892 C.2     1  ZINC000518234532    0.5200
      6 O6        -10.9179    0.0326   56.8103 O.2     1  ZINC000518234532   -0.5200
      7 C7         -9.5926   -1.7766   57.5452 C.3     1  ZINC000518234532   -0.0700
      8 H8         -8.5313   -1.9196   57.3416 H       1  ZINC000518234532    0.1100
      9 C9        -10.3022   -3.1319   57.5288 C.3     1  ZINC000518234532   -0.1400
     10 C10        -9.7625   -1.1371   58.8992 C.ar    1  ZINC000518234532   -0.1000
     11 C11       -11.0228   -1.0142   59.4523 C.ar    1  ZINC000518234532   -0.0600
     12 C12       -11.1790   -0.4274   60.6945 C.ar    1  ZINC000518234532   -0.1300
     13 C13       -10.0750    0.0375   61.3843 C.ar    1  ZINC000518234532   -0.0900
     14 C14        -8.8134   -0.0839   60.8327 C.ar    1  ZINC000518234532   -0.1600
     15 C15        -8.6552   -0.6772   59.5920 C.ar    1  ZINC000518234532    0.1000
     16 F16        -7.4225   -0.7963   59.0520 F       1  ZINC000518234532   -0.1400
     17 C17        -9.4332    0.6863   53.6212 C.ar    1  ZINC000518234532   -0.0600
     18 C18        -8.2064    0.1745   53.2434 C.ar    1  ZINC000518234532   -0.1100
     19 C19        -7.2247    1.0182   52.7454 C.ar    1  ZINC000518234532    0.0800
     20 C20        -7.4785    2.3792   52.6251 C.ar    1  ZINC000518234532    0.0600
     21 C21        -8.7112    2.8875   53.0069 C.ar    1  ZINC000518234532   -0.0800
     22 C22        -9.6872    2.0406   53.4991 C.ar    1  ZINC000518234532   -0.0800
     23 Br23      -11.3672    2.7366   54.0177 Br      1  ZINC000518234532   -0.0300
     24 O24        -6.5318    3.2234   52.1315 O.3     1  ZINC000518234532   -0.3000
     25 C25        -5.1851    2.7378   52.1093 C.3     1  ZINC000518234532    0.0200
     26 C26        -5.1972    1.3132   51.5384 C.3     1  ZINC000518234532    0.0200
     27 O27        -6.0198    0.4995   52.3815 O.3     1  ZINC000518234532   -0.3000
     28 H28       -11.8269   -1.7553   53.4137 H       1  ZINC000518234532    0.0700
     29 H29       -11.4883   -0.4433   52.2595 H       1  ZINC000518234532    0.0700
     30 H30       -10.2529   -1.6823   52.5859 H       1  ZINC000518234532    0.0600
     31 H31        -9.3374   -1.8360   54.9306 H       1  ZINC000518234532    0.4000
     32 H32       -10.1793   -3.5946   56.5495 H       1  ZINC000518234532    0.0700
     33 H33        -9.8695   -3.7779   58.2927 H       1  ZINC000518234532    0.0700
     34 H34       -11.3635   -2.9889   57.7325 H       1  ZINC000518234532    0.0700
     35 H35       -11.8862   -1.3764   58.9140 H       1  ZINC000518234532    0.1300
     36 H36       -12.1644   -0.3319   61.1260 H       1  ZINC000518234532    0.1300
     37 H37       -10.1983    0.4960   62.3543 H       1  ZINC000518234532    0.1300
     38 H38        -7.9511    0.2800   61.3715 H       1  ZINC000518234532    0.1400
     39 H39        -8.0117   -0.8838   53.3364 H       1  ZINC000518234532    0.1400
     40 H40        -8.9102    3.9451   52.9165 H       1  ZINC000518234532    0.1500
     41 H41        -4.5726    3.3816   51.4780 H       1  ZINC000518234532    0.1300
     42 H42        -4.7823    2.7245   53.1220 H       1  ZINC000518234532    0.0800
     43 H43        -5.6056    1.3256   50.5279 H       1  ZINC000518234532    0.0800
     44 H44        -4.1825    0.9158   51.5205 H       1  ZINC000518234532    0.1300
@<TRIPOS>BOND
     1     1     2    1
     2     1    28    1
     3     1    29    1
     4     1    30    1
     5     2     3    1
     6     2     4    1
     7     2    17    1
     8     4     5   am
     9     4    31    1
    10     5     6    2
    11     5     7    1
    12     7     8    1
    13     7     9    1
    14     7    10    1
    15     9    32    1
    16     9    33    1
    17     9    34    1
    18    10    15   ar
    19    10    11   ar
    20    11    12   ar
    21    11    35    1
    22    12    13   ar
    23    12    36    1
    24    13    14   ar
    25    13    37    1
    26    14    15   ar
    27    14    38    1
    28    15    16    1
    29    17    22   ar
    30    17    18   ar
    31    18    19   ar
    32    18    39    1
    33    19    27    1
    34    19    20   ar
    35    20    21   ar
    36    20    24    1
    37    21    22   ar
    38    21    40    1
    39    22    23    1
    40    24    25    1
    41    25    26    1
    42    25    41    1
    43    25    42    1
    44    26    27    1
    45    26    43    1
    46    26    44    1
@<TRIPOS>SUBSTRUCTURE
     1 ZINC000518234532        1 TEMP              0 ****  ****    0 ROOT


##########                                Name:    ZINC000433533595
##########                DOCK_Rotatable_Bonds:                  10
##########                         Heavy_Atoms:                  24
##########                    Molecular_Weight:             397.312
##########                DOCK_Rotatable_Bonds:                  10
##########                       Formal_Charge:          0.00999916
##########                     HBond_Acceptors:                   5
##########                        HBond_Donors:                   1
##########                         Heavy_Atoms:                  24
##########                          Grid_Score:          -27.095676
##########                     Grid_vdw_energy:          -26.054537
##########                      Grid_es_energy:           -1.041139
##########           Internal_energy_repulsive:           17.532227

@<TRIPOS>MOLECULE
ZINC000433533595
 49 50 1 0 0
SMALL
USER_CHARGES


@<TRIPOS>ATOM
      1 C1        -15.6811   -3.5184   57.6985 C.3     1  ZINC000433533595   -0.1500
      2 C2        -15.1022   -2.2384   58.3045 C.3     1  ZINC000433533595   -0.1200
      3 C3        -14.0471   -1.6587   57.3602 C.3     1  ZINC000433533595   -0.1300
      4 C4        -13.6672   -0.2507   57.8226 C.3     1  ZINC000433533595    0.1000
      5 N5        -12.4080   -0.3051   58.5694 N.am    1  ZINC000433533595   -0.5500
      6 C6        -12.4228   -0.5089   59.9016 C.2     1  ZINC000433533595    0.5100
      7 O7        -13.4792   -0.6473   60.4825 O.2     1  ZINC000433533595   -0.5100
      8 C8        -11.1392   -0.5643   60.6628 C.2     1  ZINC000433533595    0.5000
      9 O9        -10.5099   -1.6010   60.7169 O.2     1  ZINC000433533595   -0.4900
     10 N10       -10.6794    0.5366   61.2897 N.am    1  ZINC000433533595   -0.6300
     11 C11        -9.4772    0.4847   62.0027 C.ar    1  ZINC000433533595    0.1200
     12 C12        -9.4922    0.3329   63.3818 C.ar    1  ZINC000433533595   -0.0600
     13 C13        -8.3021    0.2820   64.0842 C.ar    1  ZINC000433533595   -0.1100
     14 Br14       -8.3242    0.0746   65.9637 Br      1  ZINC000433533595   -0.0400
     15 C15        -7.0955    0.3818   63.4150 C.ar    1  ZINC000433533595   -0.0600
     16 C16        -7.0730    0.5332   62.0407 C.ar    1  ZINC000433533595   -0.1900
     17 C17        -8.2604    0.5794   61.3290 C.ar    1  ZINC000433533595    0.1300
     18 O18        -8.2394    0.7282   59.9776 O.3     1  ZINC000433533595   -0.3100
     19 C19        -7.4066    1.7636   59.4517 C.3     1  ZINC000433533595    0.0800
     20 C20        -7.4397    1.7175   57.9228 C.3     1  ZINC000433533595   -0.1500
     21 C21        -7.9184    3.1231   59.9321 C.3     1  ZINC000433533595   -0.1800
     22 C22       -11.1327   -0.1379   57.8680 C.3     1  ZINC000433533595    0.0600
     23 C23       -10.4024   -1.4049   57.4185 C.3     1  ZINC000433533595   -0.1900
     24 C24       -11.0884   -0.5099   56.3845 C.3     1  ZINC000433533595   -0.1800
     25 H25       -14.8823   -4.2463   57.5555 H       1  ZINC000433533595    0.0500
     26 H26       -16.4327   -3.9313   58.3713 H       1  ZINC000433533595    0.0500
     27 H27       -16.1405   -3.2896   56.7369 H       1  ZINC000433533595    0.0500
     28 H28       -15.9009   -1.5106   58.4475 H       1  ZINC000433533595    0.0700
     29 H29       -14.6427   -2.4672   59.2662 H       1  ZINC000433533595    0.0600
     30 H30       -13.1623   -2.2953   57.3695 H       1  ZINC000433533595    0.0600
     31 H31       -14.4509   -1.6125   56.3489 H       1  ZINC000433533595    0.0700
     32 H32       -13.5469    0.3969   56.9541 H       1  ZINC000433533595    0.1100
     33 H33       -14.4537    0.1454   58.4649 H       1  ZINC000433533595    0.0800
     34 H34       -11.1823    1.3649   61.2466 H       1  ZINC000433533595    0.4300
     35 H35       -10.4330    0.2551   63.9065 H       1  ZINC000433533595    0.1600
     36 H36        -6.1684    0.3418   63.9676 H       1  ZINC000433533595    0.1400
     37 H37        -6.1292    0.6109   61.5216 H       1  ZINC000433533595    0.1500
     38 H38        -6.3833    1.6177   59.7976 H       1  ZINC000433533595    0.0800
     39 H39        -8.4629    1.8634   57.5769 H       1  ZINC000433533595    0.0700
     40 H40        -6.8044    2.5072   57.5216 H       1  ZINC000433533595    0.0800
     41 H41        -7.0750    0.7489   57.5805 H       1  ZINC000433533595    0.0700
     42 H42        -8.9417    3.2690   59.5862 H       1  ZINC000433533595    0.0700
     43 H43        -7.8949    3.1559   61.0213 H       1  ZINC000433533595    0.0600
     44 H44        -7.2832    3.9128   59.5310 H       1  ZINC000433533595    0.0800
     45 H45       -10.5240    0.7055   58.1938 H       1  ZINC000433533595    0.1400
     46 H46        -9.3129   -1.3954   57.4487 H       1  ZINC000433533595    0.0900
     47 H47       -10.8708   -2.3629   57.6446 H       1  ZINC000433533595    0.1400
     48 H48       -12.0080   -0.8789   55.9305 H       1  ZINC000433533595    0.1000
     49 H49       -10.4501    0.0886   55.7345 H       1  ZINC000433533595    0.1000
@<TRIPOS>BOND
     1     1     2    1
     2     1    25    1
     3     1    26    1
     4     1    27    1
     5     2     3    1
     6     2    28    1
     7     2    29    1
     8     3     4    1
     9     3    30    1
    10     3    31    1
    11     4     5    1
    12     4    32    1
    13     4    33    1
    14     5     6   am
    15     5    22    1
    16     6     7    2
    17     6     8    1
    18     8     9    2
    19     8    10   am
    20    10    11    1
    21    10    34    1
    22    11    17   ar
    23    11    12   ar
    24    12    13   ar
    25    12    35    1
    26    13    14    1
    27    13    15   ar
    28    15    16   ar
    29    15    36    1
    30    16    17   ar
    31    16    37    1
    32    17    18    1
    33    18    19    1
    34    19    20    1
    35    19    21    1
    36    19    38    1
    37    20    39    1
    38    20    40    1
    39    20    41    1
    40    21    42    1
    41    21    43    1
    42    21    44    1
    43    22    24    1
    44    22    23    1
    45    22    45    1
    46    23    24    1
    47    23    46    1
    48    23    47    1
    49    24    48    1
    50    24    49    1
@<TRIPOS>SUBSTRUCTURE
     1 ZINC000433533595        1 TEMP              0 ****  ****    0 ROOT


##########                                Name:    ZINC000939075213
##########                DOCK_Rotatable_Bonds:                   7
##########                         Heavy_Atoms:                  24
##########                    Molecular_Weight:             327.426
##########                DOCK_Rotatable_Bonds:                   7
##########                       Formal_Charge:          -0.0200002
##########                     HBond_Acceptors:                   5
##########                        HBond_Donors:                   2
##########                         Heavy_Atoms:                  24
##########                          Grid_Score:          -27.092850
##########                     Grid_vdw_energy:          -27.462372
##########                      Grid_es_energy:            0.369523
##########           Internal_energy_repulsive:           10.081826

@<TRIPOS>MOLECULE
ZINC000939075213
 49 51 1 0 0
SMALL
USER_CHARGES


@<TRIPOS>ATOM
      1 C1         -6.5415    4.3178   54.2445 C.3     1  ZINC000939075213   -0.1400
      2 C2         -5.7659    3.0936   53.7538 C.3     1  ZINC000939075213   -0.1100
      3 H3         -5.5732    2.4014   54.5735 H       1  ZINC000939075213    0.0900
      4 C4         -4.4462    3.5138   53.0600 C.3     1  ZINC000939075213    0.1100
      5 N5         -4.1321    2.4036   52.1424 N.am    1  ZINC000939075213   -0.6200
      6 C6         -2.9057    2.0901   51.6797 C.2     1  ZINC000939075213    0.5600
      7 O7         -2.7631    1.1461   50.9237 O.2     1  ZINC000939075213   -0.5400
      8 C8         -1.7835    2.8579   52.0724 C.2     1  ZINC000939075213   -0.2600
      9 C9         -0.6278    2.7789   51.3674 C.2     1  ZINC000939075213    0.0400
     10 C10         0.4957    3.5474   51.7603 C.2     1  ZINC000939075213    0.0000
     11 C11         1.7294    3.5706   51.1362 C.2     1  ZINC000939075213   -0.1500
     12 C12         2.5352    4.4604   51.8527 C.2     1  ZINC000939075213   -0.2200
     13 C13         1.8002    4.9551   52.8780 C.2     1  ZINC000939075213    0.0200
     14 N14         0.5569    4.4123   52.8300 N.pl3   1  ZINC000939075213   -0.5000
     15 C15        -5.3781    1.6945   51.8164 C.3     1  ZINC000939075213    0.0900
     16 C16        -6.5172    2.3873   52.5945 C.3     1  ZINC000939075213    0.1400
     17 H17        -7.0263    3.1169   51.9646 H       1  ZINC000939075213    0.1100
     18 N18        -7.4672    1.3992   53.1117 N.am    1  ZINC000939075213   -0.7200
     19 C19        -8.7687    1.7222   53.2469 C.2     1  ZINC000939075213    0.5300
     20 O20        -9.1531    2.8314   52.9419 O.2     1  ZINC000939075213   -0.5300
     21 C21        -9.7462    0.7053   53.7772 C.3     1  ZINC000939075213   -0.0600
     22 C22        -9.8926    0.8484   55.2934 C.3     1  ZINC000939075213   -0.1300
     23 C23       -11.0876    0.8611   53.0994 C.2     1  ZINC000939075213   -0.1700
     24 C24       -11.5742   -0.2980   52.7483 C.2     1  ZINC000939075213   -0.1400
     25 C25       -10.6386   -1.4202   53.1334 C.3     1  ZINC000939075213   -0.1100
     26 C26        -9.2858   -0.7254   53.4133 C.3     1  ZINC000939075213   -0.1100
     27 H27        -7.5003    4.0002   54.6543 H       1  ZINC000939075213    0.0600
     28 H28        -5.9662    4.8263   55.0183 H       1  ZINC000939075213    0.0700
     29 H29        -6.7105    4.9991   53.4106 H       1  ZINC000939075213    0.0600
     30 H30        -4.5891    4.4389   52.5014 H       1  ZINC000939075213    0.0700
     31 H31        -3.6518    3.6335   53.7967 H       1  ZINC000939075213    0.0800
     32 H32        -1.8477    3.5066   52.9334 H       1  ZINC000939075213    0.1300
     33 H33        -0.5637    2.1301   50.5063 H       1  ZINC000939075213    0.1500
     34 H34         2.0165    3.0071   50.2608 H       1  ZINC000939075213    0.1400
     35 H35         3.5619    4.7095   51.6286 H       1  ZINC000939075213    0.1400
     36 H36         2.1462    5.6680   53.6118 H       1  ZINC000939075213    0.1600
     37 H37        -0.1661    4.5983   53.4494 H       1  ZINC000939075213    0.4100
     38 H38        -5.5698    1.7555   50.7451 H       1  ZINC000939075213    0.0800
     39 H39        -5.3019    0.6512   52.1227 H       1  ZINC000939075213    0.0700
     40 H40        -7.1596    0.5126   53.3567 H       1  ZINC000939075213    0.4000
     41 H41       -10.2443    1.8524   55.5313 H       1  ZINC000939075213    0.0600
     42 H42       -10.6112    0.1154   55.6600 H       1  ZINC000939075213    0.0700
     43 H43        -8.9266    0.6797   55.7693 H       1  ZINC000939075213    0.0600
     44 H44       -11.5793    1.8073   52.9282 H       1  ZINC000939075213    0.1300
     45 H45       -12.5215   -0.4368   52.2485 H       1  ZINC000939075213    0.1300
     46 H46       -10.9991   -1.9244   54.0301 H       1  ZINC000939075213    0.0800
     47 H47       -10.5383   -2.1297   52.3121 H       1  ZINC000939075213    0.0800
     48 H48        -8.6573   -0.7195   52.5227 H       1  ZINC000939075213    0.0900
     49 H49        -8.7703   -1.1955   54.2508 H       1  ZINC000939075213    0.0800
@<TRIPOS>BOND
     1     1     2    1
     2     1    27    1
     3     1    28    1
     4     1    29    1
     5     2     3    1
     6     2    16    1
     7     2     4    1
     8     4     5    1
     9     4    30    1
    10     4    31    1
    11     5     6   am
    12     5    15    1
    13     6     7    2
    14     6     8    1
    15     8     9    2
    16     8    32    1
    17     9    10    1
    18     9    33    1
    19    10    14    1
    20    10    11    2
    21    11    12    1
    22    11    34    1
    23    12    13    2
    24    12    35    1
    25    13    14    1
    26    13    36    1
    27    14    37    1
    28    15    16    1
    29    15    38    1
    30    15    39    1
    31    16    17    1
    32    16    18    1
    33    18    19   am
    34    18    40    1
    35    19    20    2
    36    19    21    1
    37    21    26    1
    38    21    22    1
    39    21    23    1
    40    22    41    1
    41    22    42    1
    42    22    43    1
    43    23    24    2
    44    23    44    1
    45    24    25    1
    46    24    45    1
    47    25    26    1
    48    25    46    1
    49    25    47    1
    50    26    48    1
    51    26    49    1
@<TRIPOS>SUBSTRUCTURE
     1 ZINC000939075213        1 TEMP              0 ****  ****    0 ROOT


##########                                Name:    ZINC000611836474
##########                DOCK_Rotatable_Bonds:                   7
##########                         Heavy_Atoms:                  22
##########                    Molecular_Weight:             366.258
##########                DOCK_Rotatable_Bonds:                   7
##########                       Formal_Charge:          -0.0300004
##########                     HBond_Acceptors:                   5
##########                        HBond_Donors:                   1
##########                         Heavy_Atoms:                  22
##########                          Grid_Score:          -27.086452
##########                     Grid_vdw_energy:          -28.693623
##########                      Grid_es_energy:            1.607169
##########           Internal_energy_repulsive:            9.453641

@<TRIPOS>MOLECULE
ZINC000611836474
 42 43 1 0 0
SMALL
USER_CHARGES


@<TRIPOS>ATOM
      1 C1         -0.8693    4.1791   55.2976 C.3     1  ZINC000611836474   -0.1500
      2 C2         -1.2603    3.3278   54.0878 C.3     1  ZINC000611836474   -0.1400
      3 C3         -2.6617    3.7228   53.6177 C.3     1  ZINC000611836474    0.1300
      4 N4         -3.0366    2.9068   52.4603 N.pl3   1  ZINC000611836474   -0.3900
      5 N5         -2.1604    2.3917   51.4965 N.2     1  ZINC000611836474   -0.2900
      6 C6         -2.8607    1.7165   50.6214 C.2     1  ZINC000611836474    0.0600
      7 C7         -4.2061    1.7765   50.9946 C.2     1  ZINC000611836474   -0.2800
      8 C8         -4.2893    2.5127   52.1365 C.2     1  ZINC000611836474    0.3000
      9 N9         -5.4554    2.8130   52.8403 N.am    1  ZINC000611836474   -0.6500
     10 C10        -6.2606    1.8194   53.2657 C.2     1  ZINC000611836474    0.5200
     11 O11        -5.9703    0.6640   53.0379 O.2     1  ZINC000611836474   -0.4700
     12 C12        -7.5215    2.1440   54.0245 C.3     1  ZINC000611836474    0.0700
     13 H13        -8.0291    1.2191   54.2982 H       1  ZINC000611836474    0.1100
     14 C14        -8.4430    2.9903   53.1442 C.3     1  ZINC000611836474   -0.1800
     15 O15        -7.1907    2.8740   55.2077 O.3     1  ZINC000611836474   -0.2700
     16 C16        -7.2903    2.2108   56.3899 C.ar    1  ZINC000611836474    0.1500
     17 C17        -8.4239    1.4645   56.6744 C.ar    1  ZINC000611836474   -0.2000
     18 C18        -8.5230    0.7912   57.8770 C.ar    1  ZINC000611836474   -0.0600
     19 C19        -7.4935    0.8613   58.7970 C.ar    1  ZINC000611836474   -0.1100
     20 C20        -7.6048    0.1263   60.1079 C.3     1  ZINC000611836474   -0.1100
     21 C21        -6.3615    1.6043   58.5162 C.ar    1  ZINC000611836474   -0.0500
     22 C22        -6.2548    2.2749   57.3126 C.ar    1  ZINC000611836474   -0.1200
     23 Br23       -4.7068    3.2909   56.9289 Br      1  ZINC000611836474   -0.0300
     24 H24         0.1290    3.8976   55.6325 H       1  ZINC000611836474    0.0600
     25 H25        -0.8752    5.2325   55.0177 H       1  ZINC000611836474    0.0600
     26 H26        -1.5834    4.0135   56.1044 H       1  ZINC000611836474    0.0600
     27 H27        -0.5463    3.4933   53.2811 H       1  ZINC000611836474    0.0800
     28 H28        -1.2545    2.2744   54.3678 H       1  ZINC000611836474    0.0600
     29 H29        -3.3756    3.5582   54.4249 H       1  ZINC000611836474    0.0800
     30 H30        -2.6673    4.7761   53.3369 H       1  ZINC000611836474    0.1000
     31 H31        -2.4665    1.2015   49.7578 H       1  ZINC000611836474    0.1900
     32 H32        -5.0323    1.3174   50.4722 H       1  ZINC000611836474    0.1700
     33 H33        -5.6869    3.7370   53.0236 H       1  ZINC000611836474    0.4100
     34 H34        -8.6954    2.4335   52.2417 H       1  ZINC000611836474    0.0800
     35 H35        -9.3550    3.2251   53.6931 H       1  ZINC000611836474    0.0800
     36 H36        -7.9354    3.9152   52.8704 H       1  ZINC000611836474    0.0800
     37 H37        -9.2291    1.4098   55.9565 H       1  ZINC000611836474    0.1400
     38 H38        -9.4058    0.2099   58.0987 H       1  ZINC000611836474    0.1300
     39 H39        -7.1944   -0.8775   59.9976 H       1  ZINC000611836474    0.0700
     40 H40        -7.0476    0.6645   60.8746 H       1  ZINC000611836474    0.0700
     41 H41        -8.6530    0.0603   60.3995 H       1  ZINC000611836474    0.0700
     42 H42        -5.5586    1.6576   59.2366 H       1  ZINC000611836474    0.1400
@<TRIPOS>BOND
     1     1     2    1
     2     1    24    1
     3     1    25    1
     4     1    26    1
     5     2     3    1
     6     2    27    1
     7     2    28    1
     8     3     4    1
     9     3    29    1
    10     3    30    1
    11     4     8    1
    12     4     5    1
    13     5     6    2
    14     6     7    1
    15     6    31    1
    16     7     8    2
    17     7    32    1
    18     8     9    1
    19     9    10   am
    20     9    33    1
    21    10    11    2
    22    10    12    1
    23    12    13    1
    24    12    14    1
    25    12    15    1
    26    14    34    1
    27    14    35    1
    28    14    36    1
    29    15    16    1
    30    16    22   ar
    31    16    17   ar
    32    17    18   ar
    33    17    37    1
    34    18    19   ar
    35    18    38    1
    36    19    20    1
    37    19    21   ar
    38    20    39    1
    39    20    40    1
    40    20    41    1
    41    21    22   ar
    42    21    42    1
    43    22    23    1
@<TRIPOS>SUBSTRUCTURE
     1 ZINC000611836474        1 TEMP              0 ****  ****    0 ROOT


##########                                Name:    ZINC000643274279
##########                DOCK_Rotatable_Bonds:                   6
##########                         Heavy_Atoms:                  29
##########                    Molecular_Weight:             392.454
##########                DOCK_Rotatable_Bonds:                   6
##########                       Formal_Charge:         -0.00999939
##########                     HBond_Acceptors:                   6
##########                        HBond_Donors:                   2
##########                         Heavy_Atoms:                  29
##########                          Grid_Score:          -27.073849
##########                     Grid_vdw_energy:          -26.359024
##########                      Grid_es_energy:           -0.714824
##########           Internal_energy_repulsive:            9.455551

@<TRIPOS>MOLECULE
ZINC000643274279
 53 56 1 0 0
SMALL
USER_CHARGES


@<TRIPOS>ATOM
      1 O1        -10.0350    2.5323   59.9262 O.2     1  ZINC000643274279   -0.4900
      2 C2        -10.3118    1.7241   60.7885 C.2     1  ZINC000643274279    0.5100
      3 N3        -10.9403    0.5777   60.4612 N.am    1  ZINC000643274279   -0.6400
      4 C4        -11.2786    0.3221   59.1294 C.ar    1  ZINC000643274279    0.1300
      5 C5        -12.2466    1.0958   58.4987 C.ar    1  ZINC000643274279   -0.1000
      6 C6        -12.5967    0.8425   57.1837 C.ar    1  ZINC000643274279   -0.1000
      7 C7        -11.9848   -0.1823   56.4962 C.ar    1  ZINC000643274279   -0.0600
      8 C8        -12.4155   -0.5085   55.0769 C.3     1  ZINC000643274279   -0.0900
      9 C9        -11.2806   -0.1701   54.1170 C.3     1  ZINC000643274279   -0.1200
     10 C10       -10.3165   -1.3365   53.9607 C.3     1  ZINC000643274279   -0.1100
     11 C11        -9.4569   -1.5931   55.1726 C.3     1  ZINC000643274279   -0.1600
     12 C12       -10.3212   -2.0138   56.3453 C.2     1  ZINC000643274279    0.4100
     13 O13       -10.4523   -3.1819   56.6429 O.2     1  ZINC000643274279   -0.4400
     14 C14       -10.9953   -0.9501   57.1100 C.ar    1  ZINC000643274279   -0.1300
     15 C15       -10.6437   -0.6993   58.4378 C.ar    1  ZINC000643274279   -0.1000
     16 C16        -9.9503    1.9974   62.2117 C.2     1  ZINC000643274279    0.5200
     17 O17       -10.6782    2.6801   62.9023 O.2     1  ZINC000643274279   -0.5000
     18 N18        -8.8157    1.4860   62.7289 N.am    1  ZINC000643274279   -0.5800
     19 C19        -8.3397    1.6755   64.1113 C.3     1  ZINC000643274279    0.0900
     20 C20        -7.4183    0.4602   64.3835 C.3     1  ZINC000643274279   -0.1400
     21 C21        -6.7296    0.2766   63.0053 C.3     1  ZINC000643274279   -0.1200
     22 C22        -7.8509    0.6413   62.0097 C.3     1  ZINC000643274279    0.1800
     23 H23        -8.3388   -0.2656   61.6523 H       1  ZINC000643274279    0.0900
     24 C24        -7.2742    1.4054   60.8458 C.ar    1  ZINC000643274279   -0.1000
     25 C25        -7.0275    0.7580   59.6494 C.ar    1  ZINC000643274279   -0.0900
     26 C26        -6.4989    1.4562   58.5809 C.ar    1  ZINC000643274279   -0.1400
     27 C27        -6.2161    2.8083   58.7091 C.ar    1  ZINC000643274279    0.1100
     28 O28        -5.6964    3.4974   57.6595 O.3     1  ZINC000643274279   -0.5000
     29 C29        -6.4650    3.4557   59.9106 C.ar    1  ZINC000643274279   -0.1400
     30 C30        -6.9981    2.7542   60.9745 C.ar    1  ZINC000643274279   -0.0900
     31 H31       -11.1580   -0.0698   61.1498 H       1  ZINC000643274279    0.4200
     32 H32       -12.7281    1.8983   59.0378 H       1  ZINC000643274279    0.1400
     33 H33       -13.3483    1.4468   56.6978 H       1  ZINC000643274279    0.1400
     34 H34       -12.6504   -1.5703   55.0028 H       1  ZINC000643274279    0.0800
     35 H35       -13.2970    0.0789   54.8199 H       1  ZINC000643274279    0.0800
     36 H36       -11.7006    0.0782   53.1422 H       1  ZINC000643274279    0.0800
     37 H37       -10.7362    0.6934   54.4993 H       1  ZINC000643274279    0.0700
     38 H38       -10.8931   -2.2367   53.7477 H       1  ZINC000643274279    0.0700
     39 H39        -9.6654   -1.1364   53.1097 H       1  ZINC000643274279    0.0800
     40 H40        -8.7424   -2.3850   54.9478 H       1  ZINC000643274279    0.0900
     41 H41        -8.9153   -0.6830   55.4308 H       1  ZINC000643274279    0.0900
     42 H42        -9.8870   -1.2977   58.9233 H       1  ZINC000643274279    0.1300
     43 H43        -7.7764    2.6049   64.1945 H       1  ZINC000643274279    0.0800
     44 H44        -9.1804    1.6770   64.8051 H       1  ZINC000643274279    0.1000
     45 H45        -6.6869    0.6903   65.1582 H       1  ZINC000643274279    0.0900
     46 H46        -8.0023   -0.4210   64.6490 H       1  ZINC000643274279    0.0800
     47 H47        -5.8829    0.9554   62.9038 H       1  ZINC000643274279    0.0800
     48 H48        -6.4150   -0.7577   62.8662 H       1  ZINC000643274279    0.0900
     49 H49        -7.2478   -0.2947   59.5500 H       1  ZINC000643274279    0.1200
     50 H50        -6.3056    0.9498   57.6468 H       1  ZINC000643274279    0.1300
     51 H51        -5.5604    4.4385   57.8354 H       1  ZINC000643274279    0.3900
     52 H52        -6.2453    4.5082   60.0130 H       1  ZINC000643274279    0.1300
     53 H53        -7.1924    3.2578   61.9098 H       1  ZINC000643274279    0.1300
@<TRIPOS>BOND
     1     1     2    2
     2     2     3   am
     3     2    16    1
     4     3     4    1
     5     3    31    1
     6     4    15   ar
     7     4     5   ar
     8     5     6   ar
     9     5    32    1
    10     6     7   ar
    11     6    33    1
    12     7    14   ar
    13     7     8    1
    14     8     9    1
    15     8    34    1
    16     8    35    1
    17     9    10    1
    18     9    36    1
    19     9    37    1
    20    10    11    1
    21    10    38    1
    22    10    39    1
    23    11    12    1
    24    11    40    1
    25    11    41    1
    26    12    13    2
    27    12    14    1
    28    14    15   ar
    29    15    42    1
    30    16    17    2
    31    16    18   am
    32    18    22    1
    33    18    19    1
    34    19    20    1
    35    19    43    1
    36    19    44    1
    37    20    21    1
    38    20    45    1
    39    20    46    1
    40    21    22    1
    41    21    47    1
    42    21    48    1
    43    22    23    1
    44    22    24    1
    45    24    30   ar
    46    24    25   ar
    47    25    26   ar
    48    25    49    1
    49    26    27   ar
    50    26    50    1
    51    27    28    1
    52    27    29   ar
    53    28    51    1
    54    29    30   ar
    55    29    52    1
    56    30    53    1
@<TRIPOS>SUBSTRUCTURE
     1 ZINC000643274279        1 TEMP              0 ****  ****    0 ROOT


##########                                Name:    ZINC001045438664
##########                DOCK_Rotatable_Bonds:                   6
##########                         Heavy_Atoms:                  26
##########                    Molecular_Weight:             352.439
##########                DOCK_Rotatable_Bonds:                   6
##########                       Formal_Charge:          -0.0099999
##########                     HBond_Acceptors:                   7
##########                        HBond_Donors:                   2
##########                         Heavy_Atoms:                  26
##########                          Grid_Score:          -27.068399
##########                     Grid_vdw_energy:          -26.491219
##########                      Grid_es_energy:           -0.577180
##########           Internal_energy_repulsive:           10.397540

@<TRIPOS>MOLECULE
ZINC001045438664
 50 53 1 0 0
SMALL
USER_CHARGES


@<TRIPOS>ATOM
      1 C1         -9.8808    0.1780   58.8233 C.3     1  ZINC001045438664   -0.1100
      2 C2         -9.5715    0.2603   57.3506 C.ar    1  ZINC001045438664    0.2100
      3 C3         -8.6261    1.1519   56.8840 C.ar    1  ZINC001045438664   -0.3000
      4 C4         -8.3732    1.1918   55.5110 C.ar    1  ZINC001045438664    0.4500
      5 N5         -7.4337    2.0686   54.9936 N.pl3   1  ZINC001045438664   -0.7100
      6 C6         -7.8574    3.3665   54.4624 C.3     1  ZINC001045438664    0.1500
      7 H7         -7.4422    4.1642   55.0784 H       1  ZINC001045438664    0.0900
      8 C8         -9.3849    3.4509   54.4802 C.3     1  ZINC001045438664   -0.1300
      9 C9         -9.8273    4.8064   53.9255 C.3     1  ZINC001045438664   -0.1200
     10 C10        -9.3249    4.9578   52.4884 C.3     1  ZINC001045438664   -0.1200
     11 C11        -7.7973    4.8735   52.4705 C.3     1  ZINC001045438664   -0.1300
     12 C12        -7.3549    3.5179   53.0252 C.3     1  ZINC001045438664    0.1400
     13 H13        -7.7701    2.7203   52.4092 H       1  ZINC001045438664    0.1000
     14 N14        -5.8923    3.4371   53.0082 N.am    1  ZINC001045438664   -0.7200
     15 C15        -5.2637    2.8119   51.9930 C.2     1  ZINC001045438664    0.5700
     16 O16        -5.9105    2.3137   51.0924 O.2     1  ZINC001045438664   -0.5200
     17 C17        -3.7876    2.7319   51.9749 C.ar    1  ZINC001045438664   -0.2500
     18 C18        -3.0207    3.3629   52.9609 C.ar    1  ZINC001045438664    0.1900
     19 N19        -1.7040    3.2650   52.9065 N.ar    1  ZINC001045438664   -0.5200
     20 C20        -1.1133    2.5862   51.9426 C.ar    1  ZINC001045438664    0.3200
     21 N21        -1.7973    1.9771   50.9939 N.ar    1  ZINC001045438664   -0.5200
     22 C22        -3.1180    2.0182   50.9745 C.ar    1  ZINC001045438664    0.2100
     23 N23        -9.0483    0.3742   54.7086 N.ar    1  ZINC001045438664   -0.5800
     24 C24        -9.9423   -0.4613   55.1975 C.ar    1  ZINC001045438664    0.4000
     25 C25       -10.6862   -1.3722   54.2552 C.3     1  ZINC001045438664   -0.1100
     26 C26       -12.0446   -0.8955   53.7371 C.3     1  ZINC001045438664   -0.1500
     27 C27       -10.8339   -0.9169   52.8020 C.3     1  ZINC001045438664   -0.1500
     28 N28       -10.1999   -0.5265   56.4881 N.ar    1  ZINC001045438664   -0.5600
     29 H29        -9.2222   -0.5529   59.2926 H       1  ZINC001045438664    0.0800
     30 H30        -9.7256    1.1544   59.2823 H       1  ZINC001045438664    0.0800
     31 H31       -10.9182   -0.1272   58.9601 H       1  ZINC001045438664    0.0800
     32 H32        -8.0958    1.8024   57.5636 H       1  ZINC001045438664    0.1400
     33 H33        -6.4953    1.8230   54.9829 H       1  ZINC001045438664    0.4100
     34 H34        -9.8001    2.6532   53.8643 H       1  ZINC001045438664    0.0700
     35 H35        -9.7428    3.3430   55.5042 H       1  ZINC001045438664    0.0700
     36 H36       -10.9156    4.8665   53.9382 H       1  ZINC001045438664    0.0700
     37 H37        -9.4121    5.6040   54.5415 H       1  ZINC001045438664    0.0700
     38 H38        -9.7400    4.1601   51.8723 H       1  ZINC001045438664    0.0700
     39 H39        -9.6400    5.9236   52.0931 H       1  ZINC001045438664    0.0700
     40 H40        -7.4394    4.9813   51.4466 H       1  ZINC001045438664    0.0800
     41 H41        -7.3822    5.6711   53.0865 H       1  ZINC001045438664    0.0700
     42 H42        -5.3762    3.8336   53.7275 H       1  ZINC001045438664    0.4000
     43 H43        -3.4972    3.9209   53.7534 H       1  ZINC001045438664    0.1700
     44 H44        -0.0350    2.5274   51.9295 H       1  ZINC001045438664    0.2100
     45 H45        -3.6712    1.5168   50.1942 H       1  ZINC001045438664    0.1800
     46 H46       -10.5634   -2.4396   54.4382 H       1  ZINC001045438664    0.1300
     47 H47       -12.8158   -1.6495   53.5793 H       1  ZINC001045438664    0.1000
     48 H48       -12.4003    0.0769   54.0778 H       1  ZINC001045438664    0.1100
     49 H49       -10.3929    0.0414   52.5274 H       1  ZINC001045438664    0.1000
     50 H50       -10.8085   -1.6850   52.0289 H       1  ZINC001045438664    0.1000
@<TRIPOS>BOND
     1     1     2    1
     2     1    29    1
     3     1    30    1
     4     1    31    1
     5     2    28   ar
     6     2     3   ar
     7     3     4   ar
     8     3    32    1
     9     4     5    1
    10     4    23   ar
    11     5     6    1
    12     5    33    1
    13     6     7    1
    14     6    12    1
    15     6     8    1
    16     8     9    1
    17     8    34    1
    18     8    35    1
    19     9    10    1
    20     9    36    1
    21     9    37    1
    22    10    11    1
    23    10    38    1
    24    10    39    1
    25    11    12    1
    26    11    40    1
    27    11    41    1
    28    12    13    1
    29    12    14    1
    30    14    15   am
    31    14    42    1
    32    15    16    2
    33    15    17    1
    34    17    22   ar
    35    17    18   ar
    36    18    19   ar
    37    18    43    1
    38    19    20   ar
    39    20    21   ar
    40    20    44    1
    41    21    22   ar
    42    22    45    1
    43    23    24   ar
    44    24    25    1
    45    24    28   ar
    46    25    27    1
    47    25    26    1
    48    25    46    1
    49    26    27    1
    50    26    47    1
    51    26    48    1
    52    27    49    1
    53    27    50    1
@<TRIPOS>SUBSTRUCTURE
     1 ZINC001045438664        1 TEMP              0 ****  ****    0 ROOT


##########                                Name:    ZINC000538774026
##########                DOCK_Rotatable_Bonds:                  10
##########                         Heavy_Atoms:                  29
##########                    Molecular_Weight:             414.496
##########                DOCK_Rotatable_Bonds:                  10
##########                       Formal_Charge:            0.049999
##########                     HBond_Acceptors:                   9
##########                        HBond_Donors:                   2
##########                         Heavy_Atoms:                  29
##########                          Grid_Score:          -27.058695
##########                     Grid_vdw_energy:          -25.350811
##########                      Grid_es_energy:           -1.707885
##########           Internal_energy_repulsive:           28.944223

@<TRIPOS>MOLECULE
ZINC000538774026
 61 62 1 0 0
SMALL
USER_CHARGES


@<TRIPOS>ATOM
      1 C1         -6.9012    3.1615   51.2822 C.3     1  ZINC000538774026   -0.1500
      2 C2         -6.1577    2.0466   52.0207 C.3     1  ZINC000538774026   -0.1100
      3 C3         -4.7237    1.9549   51.4953 C.3     1  ZINC000538774026   -0.1400
      4 C4         -6.1331    2.3558   53.5189 C.3     1  ZINC000538774026    0.1400
      5 N5         -7.3158    1.7727   54.1574 N.pl3   1  ZINC000538774026   -0.3400
      6 N6         -8.4249    1.2282   53.4975 N.2     1  ZINC000538774026   -0.2500
      7 C7         -9.2750    0.8074   54.3986 C.2     1  ZINC000538774026    0.0500
      8 C8         -8.7383    1.0684   55.6676 C.2     1  ZINC000538774026    0.0800
      9 N9         -9.3442    0.7661   56.9026 N.am    1  ZINC000538774026   -0.6600
     10 C10       -10.0938    1.6937   57.5305 C.2     1  ZINC000538774026    0.7100
     11 O11       -10.2483    2.7910   57.0299 O.2     1  ZINC000538774026   -0.5700
     12 N12       -10.6722    1.4049   58.7130 N.am    1  ZINC000538774026   -0.7300
     13 C13       -11.4856    2.4138   59.3963 C.3     1  ZINC000538774026    0.1600
     14 C14       -12.7884    2.6278   58.6230 C.3     1  ZINC000538774026   -0.1300
     15 C15       -13.5626    1.3099   58.5537 C.3     1  ZINC000538774026   -0.1000
     16 C16       -13.8835    0.8318   59.9712 C.3     1  ZINC000538774026   -0.0800
     17 C17       -14.6461   -0.4663   59.9029 C.2     1  ZINC000538774026    0.4700
     18 O18       -14.7120   -1.1800   60.8756 O.2     1  ZINC000538774026   -0.5000
     19 O19       -15.2523   -0.8293   58.7617 O.3     1  ZINC000538774026   -0.3500
     20 C20       -14.8680   -2.1070   58.1888 C.3     1  ZINC000538774026    0.1200
     21 C21       -13.3713   -2.3354   58.4095 C.3     1  ZINC000538774026   -0.1800
     22 C22       -15.6602   -3.2279   58.8648 C.3     1  ZINC000538774026   -0.1400
     23 C23       -15.1676   -2.1039   56.6884 C.3     1  ZINC000538774026   -0.1800
     24 C24       -12.5808    0.6179   60.7444 C.3     1  ZINC000538774026   -0.1100
     25 C25       -11.8066    1.9357   60.8138 C.3     1  ZINC000538774026   -0.1300
     26 C26        -7.5285    1.6588   55.4943 C.2     1  ZINC000538774026   -0.0500
     27 C27        -6.5950    2.1136   56.5864 C.3     1  ZINC000538774026    0.3500
     28 F28        -6.7018    3.4996   56.7441 F       1  ZINC000538774026   -0.1900
     29 F29        -6.9369    1.4801   57.7860 F       1  ZINC000538774026   -0.1900
     30 H30        -6.9187    2.9414   50.2147 H       1  ZINC000538774026    0.0600
     31 H31        -7.9227    3.2269   51.6565 H       1  ZINC000538774026    0.0600
     32 H32        -6.3916    4.1105   51.4491 H       1  ZINC000538774026    0.0600
     33 H33        -6.6673    1.0977   51.8538 H       1  ZINC000538774026    0.0800
     34 H34        -4.2142    2.9038   51.6622 H       1  ZINC000538774026    0.0600
     35 H35        -4.1941    1.1607   52.0215 H       1  ZINC000538774026    0.0600
     36 H36        -4.7412    1.7347   50.4279 H       1  ZINC000538774026    0.0600
     37 H37        -5.2334    1.9300   53.9630 H       1  ZINC000538774026    0.1000
     38 H38        -6.1354    3.4356   53.6672 H       1  ZINC000538774026    0.1000
     39 H39       -10.2276    0.3392   54.1992 H       1  ZINC000538774026    0.2100
     40 H40        -9.2220   -0.1097   57.3013 H       1  ZINC000538774026    0.4100
     41 H41       -10.5500    0.5292   59.1118 H       1  ZINC000538774026    0.4000
     42 H42       -10.9341    3.3526   59.4457 H       1  ZINC000538774026    0.1000
     43 H43       -13.3935    3.3784   59.1314 H       1  ZINC000538774026    0.0800
     44 H44       -12.5598    2.9683   57.6132 H       1  ZINC000538774026    0.0800
     45 H45       -14.4908    1.4624   58.0028 H       1  ZINC000538774026    0.0700
     46 H46       -12.9575    0.5593   58.0454 H       1  ZINC000538774026    0.0700
     47 H47       -14.4887    1.5824   60.4795 H       1  ZINC000538774026    0.1100
     48 H48       -13.1579   -2.3375   59.4784 H       1  ZINC000538774026    0.0600
     49 H49       -13.0829   -3.2945   57.9794 H       1  ZINC000538774026    0.0700
     50 H50       -12.8070   -1.5369   57.9279 H       1  ZINC000538774026    0.0800
     51 H51       -16.7264   -3.0652   58.7076 H       1  ZINC000538774026    0.0700
     52 H52       -15.3716   -4.1870   58.4347 H       1  ZINC000538774026    0.0800
     53 H53       -15.4467   -3.2301   59.9337 H       1  ZINC000538774026    0.0700
     54 H54       -14.6034   -1.3054   56.2068 H       1  ZINC000538774026    0.0800
     55 H55       -14.8792   -3.0630   56.2583 H       1  ZINC000538774026    0.0700
     56 H56       -16.2340   -1.9412   56.5312 H       1  ZINC000538774026    0.0600
     57 H57       -12.8094    0.2772   61.7543 H       1  ZINC000538774026    0.0800
     58 H58       -11.9756   -0.1328   60.2361 H       1  ZINC000538774026    0.0600
     59 H59       -10.8785    1.7832   61.3647 H       1  ZINC000538774026    0.0800
     60 H60       -12.4118    2.6863   61.3221 H       1  ZINC000538774026    0.0900
     61 H61        -5.5701    1.8562   56.3189 H       1  ZINC000538774026    0.1300
@<TRIPOS>BOND
     1     1     2    1
     2     1    30    1
     3     1    31    1
     4     1    32    1
     5     2     3    1
     6     2     4    1
     7     2    33    1
     8     3    34    1
     9     3    35    1
    10     3    36    1
    11     4     5    1
    12     4    37    1
    13     4    38    1
    14     5    26    1
    15     5     6    1
    16     6     7    2
    17     7     8    1
    18     7    39    1
    19     8     9    1
    20     8    26    2
    21     9    10   am
    22     9    40    1
    23    10    11    2
    24    10    12   am
    25    12    13    1
    26    12    41    1
    27    13    25    1
    28    13    14    1
    29    13    42    1
    30    14    15    1
    31    14    43    1
    32    14    44    1
    33    15    16    1
    34    15    45    1
    35    15    46    1
    36    16    17    1
    37    16    24    1
    38    16    47    1
    39    17    18    2
    40    17    19    1
    41    19    20    1
    42    20    21    1
    43    20    22    1
    44    20    23    1
    45    21    48    1
    46    21    49    1
    47    21    50    1
    48    22    51    1
    49    22    52    1
    50    22    53    1
    51    23    54    1
    52    23    55    1
    53    23    56    1
    54    24    25    1
    55    24    57    1
    56    24    58    1
    57    25    59    1
    58    25    60    1
    59    26    27    1
    60    27    28    1
    61    27    29    1
    62    27    61    1
@<TRIPOS>SUBSTRUCTURE
     1 ZINC000538774026        1 TEMP              0 ****  ****    0 ROOT


##########                                Name:    ZINC000543020509
##########                DOCK_Rotatable_Bonds:                   5
##########                         Heavy_Atoms:                  26
##########                    Molecular_Weight:              366.81
##########                DOCK_Rotatable_Bonds:                   5
##########                       Formal_Charge:               -0.02
##########                     HBond_Acceptors:                   8
##########                        HBond_Donors:                   1
##########                         Heavy_Atoms:                  26
##########                          Grid_Score:          -27.051971
##########                     Grid_vdw_energy:          -27.350620
##########                      Grid_es_energy:            0.298649
##########           Internal_energy_repulsive:           15.432534

@<TRIPOS>MOLECULE
ZINC000543020509
 41 43 1 0 0
SMALL
USER_CHARGES


@<TRIPOS>ATOM
      1 C1         -0.7447    3.9053   54.4552 C.3     1  ZINC000543020509    0.0800
      2 N2         -0.3561    3.5711   53.0828 N.pl3   1  ZINC000543020509   -0.6200
      3 C3          0.9775    3.9271   52.5919 C.3     1  ZINC000543020509    0.0900
      4 C4         -1.2538    2.9152   52.2453 C.ar    1  ZINC000543020509    0.2500
      5 C5         -0.8071    2.2249   51.1199 C.ar    1  ZINC000543020509   -0.2200
      6 C6         -1.7271    1.5844   50.3104 C.ar    1  ZINC000543020509    0.1400
      7 N7         -3.0133    1.6181   50.5879 N.ar    1  ZINC000543020509   -0.5000
      8 C8         -3.4845    2.2634   51.6495 C.ar    1  ZINC000543020509    0.1100
      9 C9         -4.9414    2.2703   51.9171 C.2     1  ZINC000543020509    0.5900
     10 O10        -5.7073    1.7586   51.1242 O.2     1  ZINC000543020509   -0.5000
     11 N11        -5.4178    2.8439   53.0398 N.am    1  ZINC000543020509   -0.6200
     12 C12        -6.7941    2.8489   53.2934 C.2     1  ZINC000543020509    0.3200
     13 N13        -7.6930    2.1182   52.6764 N.2     1  ZINC000543020509   -0.3100
     14 N14        -8.9487    2.4158   53.2216 N.pl3   1  ZINC000543020509   -0.3300
     15 C15       -10.1666    1.8490   52.8381 C.ar    1  ZINC000543020509    0.2200
     16 C16       -10.9803    2.5002   51.9228 C.ar    1  ZINC000543020509   -0.1300
     17 C17       -12.1842    1.9387   51.5442 C.ar    1  ZINC000543020509   -0.0500
     18 C18       -12.5885    0.7238   52.0740 C.ar    1  ZINC000543020509   -0.0600
     19 Cl19      -14.1044    0.0307   51.5886 Cl      1  ZINC000543020509   -0.0500
     20 C20       -11.7911    0.0621   52.9856 C.ar    1  ZINC000543020509   -0.0400
     21 C21       -10.5692    0.6160   53.3726 C.ar    1  ZINC000543020509   -0.0200
     22 C22        -9.7370   -0.0652   54.3180 C.1     1  ZINC000543020509    0.2500
     23 N23        -9.0767   -0.6057   55.0680 N.1     1  ZINC000543020509   -0.3800
     24 C24        -8.7726    3.3529   54.1897 C.2     1  ZINC000543020509    0.0700
     25 C25        -7.4517    3.6327   54.2568 C.2     1  ZINC000543020509   -0.2400
     26 C26        -2.6223    2.9275   52.5146 C.ar    1  ZINC000543020509   -0.1800
     27 H27        -1.2021    4.8946   54.4726 H       1  ZINC000543020509    0.0600
     28 H28        -1.4599    3.1680   54.8201 H       1  ZINC000543020509    0.0700
     29 H29         0.1385    3.9020   55.0940 H       1  ZINC000543020509    0.0700
     30 H30         1.5335    4.4304   53.3829 H       1  ZINC000543020509    0.0800
     31 H31         1.5082    3.0231   52.2934 H       1  ZINC000543020509    0.0600
     32 H32         0.8831    4.5930   51.7340 H       1  ZINC000543020509    0.0600
     33 H33         0.2459    2.1909   50.8824 H       1  ZINC000543020509    0.1400
     34 H34        -1.3852    1.0487   49.4373 H       1  ZINC000543020509    0.1700
     35 H35        -4.8066    3.2533   53.6721 H       1  ZINC000543020509    0.4300
     36 H36       -10.6722    3.4475   51.5056 H       1  ZINC000543020509    0.1500
     37 H37       -12.8143    2.4499   50.8314 H       1  ZINC000543020509    0.1500
     38 H38       -12.1100   -0.8846   53.3961 H       1  ZINC000543020509    0.1500
     39 H39        -9.5484    3.7923   54.7992 H       1  ZINC000543020509    0.1900
     40 H40        -6.9850    4.3387   54.9277 H       1  ZINC000543020509    0.1800
     41 H41        -3.0069    3.4512   53.3773 H       1  ZINC000543020509    0.1500
@<TRIPOS>BOND
     1     1     2    1
     2     1    27    1
     3     1    28    1
     4     1    29    1
     5     2     3    1
     6     2     4    1
     7     3    30    1
     8     3    31    1
     9     3    32    1
    10     4    26   ar
    11     4     5   ar
    12     5     6   ar
    13     5    33    1
    14     6     7   ar
    15     6    34    1
    16     7     8   ar
    17     8     9    1
    18     8    26   ar
    19     9    10    2
    20     9    11   am
    21    11    12    1
    22    11    35    1
    23    12    25    1
    24    12    13    2
    25    13    14    1
    26    14    15    1
    27    14    24    1
    28    15    21   ar
    29    15    16   ar
    30    16    17   ar
    31    16    36    1
    32    17    18   ar
    33    17    37    1
    34    18    19    1
    35    18    20   ar
    36    20    21   ar
    37    20    38    1
    38    21    22    1
    39    22    23    3
    40    24    25    2
    41    24    39    1
    42    25    40    1
    43    26    41    1
@<TRIPOS>SUBSTRUCTURE
     1 ZINC000543020509        1 TEMP              0 ****  ****    0 ROOT


##########                                Name:    ZINC001191386213
##########                DOCK_Rotatable_Bonds:                   6
##########                         Heavy_Atoms:                  29
##########                    Molecular_Weight:             392.433
##########                DOCK_Rotatable_Bonds:                   6
##########                       Formal_Charge:               -0.02
##########                     HBond_Acceptors:                   7
##########                        HBond_Donors:                   2
##########                         Heavy_Atoms:                  29
##########                          Grid_Score:          -27.048908
##########                     Grid_vdw_energy:          -27.226351
##########                      Grid_es_energy:            0.177442
##########           Internal_energy_repulsive:          171.605896

@<TRIPOS>MOLECULE
ZINC001191386213
 50 53 1 0 0
SMALL
USER_CHARGES


@<TRIPOS>ATOM
      1 C1          4.5456    0.6905   47.6398 C.3     1  ZINC001191386213   -0.1700
      2 C2          3.8832    1.4297   48.7738 C.2     1  ZINC001191386213    0.5100
      3 O3          2.6838    1.3462   48.9335 O.2     1  ZINC001191386213   -0.5200
      4 N4          4.6236    2.1834   49.6106 N.am    1  ZINC001191386213   -0.6800
      5 C5          4.0085    2.8698   50.6637 C.ar    1  ZINC001191386213    0.1400
      6 C6          4.7715    3.6467   51.5263 C.ar    1  ZINC001191386213   -0.1400
      7 C7          4.1673    4.3264   52.5671 C.ar    1  ZINC001191386213   -0.1000
      8 C8          2.8026    4.2365   52.7554 C.ar    1  ZINC001191386213   -0.1100
      9 C9          2.0296    3.4590   51.8950 C.ar    1  ZINC001191386213    0.0100
     10 C10         0.5620    3.3615   52.0963 C.2     1  ZINC001191386213    0.0700
     11 N11        -0.1342    3.9544   53.0433 N.2     1  ZINC001191386213   -0.2500
     12 N12        -1.3813    3.6661   52.9407 N.pl3   1  ZINC001191386213   -0.3800
     13 C13        -1.5796    2.8330   51.8756 C.2     1  ZINC001191386213   -0.0400
     14 C14        -2.8633    2.2749   51.4204 C.2     1  ZINC001191386213    0.6100
     15 O15        -2.8911    1.4977   50.4851 O.2     1  ZINC001191386213   -0.5100
     16 N16        -4.0079    2.6249   52.0400 N.am    1  ZINC001191386213   -0.6200
     17 C17        -4.1182    3.5497   53.1775 C.3     1  ZINC001191386213    0.0800
     18 C18        -5.6104    3.6240   53.5646 C.3     1  ZINC001191386213   -0.1200
     19 C19        -6.1851    2.3031   52.9880 C.3     1  ZINC001191386213   -0.0600
     20 H20        -6.0079    1.4702   53.6683 H       1  ZINC001191386213    0.1000
     21 C21        -7.6536    2.4421   52.6797 C.ar    1  ZINC001191386213   -0.1100
     22 C22        -8.0921    3.4528   51.8457 C.ar    1  ZINC001191386213   -0.0900
     23 C23        -9.4394    3.5807   51.5628 C.ar    1  ZINC001191386213   -0.1300
     24 C24       -10.3493    2.6982   52.1140 C.ar    1  ZINC001191386213   -0.0900
     25 C25        -9.9130    1.6866   52.9488 C.ar    1  ZINC001191386213   -0.1500
     26 C26        -8.5636    1.5536   53.2276 C.ar    1  ZINC001191386213    0.1100
     27 F27        -8.1360    0.5653   54.0435 F       1  ZINC001191386213   -0.1400
     28 C28        -5.3573    2.1488   51.6851 C.3     1  ZINC001191386213    0.1200
     29 C29        -0.3381    2.6237   51.3061 C.2     1  ZINC001191386213   -0.1300
     30 C30         2.6362    2.7792   50.8430 C.ar    1  ZINC001191386213   -0.1000
     31 H31         3.7926    0.1398   47.0762 H       1  ZINC001191386213    0.1000
     32 H32         5.0421    1.4040   46.9821 H       1  ZINC001191386213    0.0900
     33 H33         5.2811   -0.0066   48.0410 H       1  ZINC001191386213    0.0900
     34 H34         5.5829    2.2501   49.4830 H       1  ZINC001191386213    0.4100
     35 H35         5.8395    3.7195   51.3835 H       1  ZINC001191386213    0.1300
     36 H36         4.7645    4.9291   53.2352 H       1  ZINC001191386213    0.1300
     37 H37         2.3339    4.7687   53.5700 H       1  ZINC001191386213    0.1300
     38 H38        -2.0788    3.9908   53.5315 H       1  ZINC001191386213    0.4400
     39 H39        -3.5354    3.1740   54.0186 H       1  ZINC001191386213    0.0700
     40 H40        -3.7608    4.5378   52.8880 H       1  ZINC001191386213    0.0800
     41 H41        -5.7267    3.6546   54.6479 H       1  ZINC001191386213    0.0900
     42 H42        -6.0867    4.4871   53.0998 H       1  ZINC001191386213    0.0900
     43 H43        -7.3821    4.1435   51.4150 H       1  ZINC001191386213    0.1300
     44 H44        -9.7813    4.3709   50.9108 H       1  ZINC001191386213    0.1300
     45 H45       -11.4015    2.7992   51.8925 H       1  ZINC001191386213    0.1300
     46 H46       -10.6242    0.9976   53.3800 H       1  ZINC001191386213    0.1400
     47 H47        -5.7840    2.7601   50.8899 H       1  ZINC001191386213    0.0800
     48 H48        -5.3191    1.1026   51.3816 H       1  ZINC001191386213    0.0900
     49 H49        -0.1071    2.0176   50.4426 H       1  ZINC001191386213    0.1700
     50 H50         2.0413    2.1754   50.1737 H       1  ZINC001191386213    0.1500
@<TRIPOS>BOND
     1     1     2    1
     2     1    31    1
     3     1    32    1
     4     1    33    1
     5     2     3    2
     6     2     4   am
     7     4     5    1
     8     4    34    1
     9     5    30   ar
    10     5     6   ar
    11     6     7   ar
    12     6    35    1
    13     7     8   ar
    14     7    36    1
    15     8     9   ar
    16     8    37    1
    17     9    10    1
    18     9    30   ar
    19    10    29    1
    20    10    11    2
    21    11    12    1
    22    12    13    1
    23    12    38    1
    24    13    14    1
    25    13    29    2
    26    14    15    2
    27    14    16   am
    28    16    28    1
    29    16    17    1
    30    17    18    1
    31    17    39    1
    32    17    40    1
    33    18    19    1
    34    18    41    1
    35    18    42    1
    36    19    20    1
    37    19    21    1
    38    19    28    1
    39    21    26   ar
    40    21    22   ar
    41    22    23   ar
    42    22    43    1
    43    23    24   ar
    44    23    44    1
    45    24    25   ar
    46    24    45    1
    47    25    26   ar
    48    25    46    1
    49    26    27    1
    50    28    47    1
    51    28    48    1
    52    29    49    1
    53    30    50    1
@<TRIPOS>SUBSTRUCTURE
     1 ZINC001191386213        1 TEMP              0 ****  ****    0 ROOT


##########                                Name:    ZINC001082278299
##########                DOCK_Rotatable_Bonds:                   9
##########                         Heavy_Atoms:                  25
##########                    Molecular_Weight:              346.47
##########                DOCK_Rotatable_Bonds:                   9
##########                       Formal_Charge:           0.0200001
##########                     HBond_Acceptors:                   5
##########                        HBond_Donors:                   1
##########                         Heavy_Atoms:                  25
##########                          Grid_Score:          -27.039120
##########                     Grid_vdw_energy:          -26.232609
##########                      Grid_es_energy:           -0.806512
##########           Internal_energy_repulsive:           86.962891

@<TRIPOS>MOLECULE
ZINC001082278299
 55 57 1 0 0
SMALL
USER_CHARGES


@<TRIPOS>ATOM
      1 C1        -14.1265   -1.8649   59.9143 C.3     1  ZINC001082278299   -0.1300
      2 C2        -13.6967   -2.0944   58.4883 C.2     1  ZINC001082278299    0.0000
      3 C3        -12.4676   -1.7635   58.1027 C.2     1  ZINC001082278299   -0.2300
      4 C4        -11.5277   -1.1734   59.0681 C.2     1  ZINC001082278299    0.5400
      5 O5        -10.6299   -1.8490   59.5334 O.2     1  ZINC001082278299   -0.5300
      6 N6        -11.6613    0.1161   59.4369 N.am    1  ZINC001082278299   -0.7400
      7 C7        -10.7262    0.7032   60.3998 C.3     1  ZINC001082278299    0.1300
      8 C8         -9.7865    1.6684   59.6743 C.3     1  ZINC001082278299    0.1400
      9 H9        -10.3535    2.5239   59.3075 H       1  ZINC001082278299    0.0800
     10 C10        -9.1214    0.9496   58.4963 C.3     1  ZINC001082278299   -0.1300
     11 C11        -8.0812    1.8749   57.8608 C.3     1  ZINC001082278299   -0.1200
     12 C12        -7.0016    2.2150   58.8907 C.3     1  ZINC001082278299   -0.1400
     13 C13        -7.6426    2.9482   60.0732 C.3     1  ZINC001082278299    0.1100
     14 N14        -8.7432    2.1295   60.6005 N.am    1  ZINC001082278299   -0.6100
     15 C15        -8.7917    1.8038   61.9074 C.2     1  ZINC001082278299    0.5100
     16 O16        -9.7054    1.1277   62.3304 O.2     1  ZINC001082278299   -0.5100
     17 C17        -7.7107    2.2798   62.8433 C.3     1  ZINC001082278299   -0.1100
     18 C18        -7.9328    1.6865   64.2106 C.2     1  ZINC001082278299   -0.0900
     19 C19        -8.7438    2.2884   65.0289 C.2     1  ZINC001082278299   -0.1800
     20 C20        -9.0260    1.7837   66.4155 C.3     1  ZINC001082278299    0.0900
     21 O21        -8.5896    0.4290   66.5442 O.3     1  ZINC001082278299   -0.3800
     22 C22        -7.2436    0.2287   66.0950 C.3     1  ZINC001082278299    0.0600
     23 C23        -7.2124    0.4175   64.5741 C.3     1  ZINC001082278299   -0.1100
     24 C24       -14.6595   -2.6989   57.4991 C.3     1  ZINC001082278299   -0.1200
     25 C25       -15.4867   -3.9000   57.9620 C.3     1  ZINC001082278299   -0.1900
     26 C26       -16.1549   -2.5358   57.7787 C.3     1  ZINC001082278299   -0.1500
     27 H27       -14.5620   -0.8699   60.0068 H       1  ZINC001082278299    0.0800
     28 H28       -14.8674   -2.6132   60.1955 H       1  ZINC001082278299    0.0800
     29 H29       -13.2611   -1.9453   60.5721 H       1  ZINC001082278299    0.0700
     30 H30       -12.1597   -1.9281   57.0807 H       1  ZINC001082278299    0.1300
     31 H31       -12.3767    0.6552   59.0649 H       1  ZINC001082278299    0.3900
     32 H32       -11.2837    1.2446   61.1641 H       1  ZINC001082278299    0.0900
     33 H33       -10.1423   -0.0889   60.8685 H       1  ZINC001082278299    0.0800
     34 H34        -8.6326    0.0428   58.8524 H       1  ZINC001082278299    0.0700
     35 H35        -9.8773    0.6890   57.7555 H       1  ZINC001082278299    0.0800
     36 H36        -7.6239    1.3750   57.0069 H       1  ZINC001082278299    0.0700
     37 H37        -8.5666    2.7921   57.5271 H       1  ZINC001082278299    0.0700
     38 H38        -6.5326    1.2964   59.2431 H       1  ZINC001082278299    0.0700
     39 H39        -6.2487    2.8551   58.4307 H       1  ZINC001082278299    0.0800
     40 H40        -6.8975    3.1050   60.8533 H       1  ZINC001082278299    0.0900
     41 H41        -8.0326    3.9096   59.7392 H       1  ZINC001082278299    0.0700
     42 H42        -6.7381    1.9658   62.4645 H       1  ZINC001082278299    0.1000
     43 H43        -7.7408    3.3674   62.9099 H       1  ZINC001082278299    0.1000
     44 H44        -9.2361    3.1908   64.6977 H       1  ZINC001082278299    0.1100
     45 H45        -8.4980    2.4038   67.1401 H       1  ZINC001082278299    0.0600
     46 H46       -10.0973    1.8382   66.6089 H       1  ZINC001082278299    0.1000
     47 H47        -6.5854    0.9547   66.5725 H       1  ZINC001082278299    0.0600
     48 H48        -6.9196   -0.7814   66.3452 H       1  ZINC001082278299    0.1000
     49 H49        -7.6963   -0.4325   64.0929 H       1  ZINC001082278299    0.0800
     50 H50        -6.1777    0.4839   64.2377 H       1  ZINC001082278299    0.0800
     51 H51       -14.3373   -2.6805   56.4579 H       1  ZINC001082278299    0.1300
     52 H52       -15.7086   -4.6721   57.2254 H       1  ZINC001082278299    0.1000
     53 H53       -15.3343   -4.2529   58.9820 H       1  ZINC001082278299    0.1000
     54 H54       -16.4422   -1.9913   58.6783 H       1  ZINC001082278299    0.0900
     55 H55       -16.8165   -2.4106   56.9217 H       1  ZINC001082278299    0.1000
@<TRIPOS>BOND
     1     1     2    1
     2     1    27    1
     3     1    28    1
     4     1    29    1
     5     2     3    2
     6     2    24    1
     7     3     4    1
     8     3    30    1
     9     4     5    2
    10     4     6   am
    11     6     7    1
    12     6    31    1
    13     7     8    1
    14     7    32    1
    15     7    33    1
    16     8     9    1
    17     8    14    1
    18     8    10    1
    19    10    11    1
    20    10    34    1
    21    10    35    1
    22    11    12    1
    23    11    36    1
    24    11    37    1
    25    12    13    1
    26    12    38    1
    27    12    39    1
    28    13    14    1
    29    13    40    1
    30    13    41    1
    31    14    15   am
    32    15    16    2
    33    15    17    1
    34    17    18    1
    35    17    42    1
    36    17    43    1
    37    18    23    1
    38    18    19    2
    39    19    20    1
    40    19    44    1
    41    20    21    1
    42    20    45    1
    43    20    46    1
    44    21    22    1
    45    22    23    1
    46    22    47    1
    47    22    48    1
    48    23    49    1
    49    23    50    1
    50    24    26    1
    51    24    25    1
    52    24    51    1
    53    25    26    1
    54    25    52    1
    55    25    53    1
    56    26    54    1
    57    26    55    1
@<TRIPOS>SUBSTRUCTURE
     1 ZINC001082278299        1 TEMP              0 ****  ****    0 ROOT


##########                                Name:    ZINC001053792610
##########                DOCK_Rotatable_Bonds:                   5
##########                         Heavy_Atoms:                  25
##########                    Molecular_Weight:             347.374
##########                DOCK_Rotatable_Bonds:                   5
##########                       Formal_Charge:          -0.0400001
##########                     HBond_Acceptors:                   9
##########                        HBond_Donors:                   2
##########                         Heavy_Atoms:                  25
##########                          Grid_Score:          -27.036835
##########                     Grid_vdw_energy:          -25.450123
##########                      Grid_es_energy:           -1.586712
##########           Internal_energy_repulsive:            4.482645

@<TRIPOS>MOLECULE
ZINC001053792610
 46 49 1 0 0
SMALL
USER_CHARGES


@<TRIPOS>ATOM
      1 C1         -0.7513    4.5481   54.2367 C.3     1  ZINC001053792610   -0.1000
      2 C2         -2.1266    4.3125   54.8062 C.ar    1  ZINC001053792610    0.0800
      3 C3         -3.1675    3.9469   53.9715 C.ar    1  ZINC001053792610    0.0600
      4 N4         -4.3735    3.7404   54.4709 N.ar    1  ZINC001053792610   -0.4200
      5 C5         -4.5851    3.8830   55.7672 C.ar    1  ZINC001053792610    0.0800
      6 C6         -5.9602    3.6470   56.3367 C.3     1  ZINC001053792610    0.0700
      7 N7         -5.9666    2.3895   57.0962 N.3     1  ZINC001053792610   -0.4500
      8 C8         -7.3470    1.9485   57.3776 C.3     1  ZINC001053792610   -0.0100
      9 C9         -6.8785    1.5816   58.7843 C.3     1  ZINC001053792610    0.0800
     10 C10        -5.8081    2.6437   58.5417 C.3     1  ZINC001053792610   -0.0100
     11 C11        -7.8748    1.9010   59.9100 C.3     1  ZINC001053792610   -0.1500
     12 C12        -8.3056    0.4804   60.3720 C.3     1  ZINC001053792610    0.1100
     13 H13        -8.5906    0.4794   61.4241 H       1  ZINC001053792610    0.1200
     14 N14        -9.3891   -0.0407   59.5349 N.am    1  ZINC001053792610   -0.7100
     15 C15       -10.6477   -0.0890   60.0144 C.2     1  ZINC001053792610    0.5000
     16 O16       -10.8836    0.3004   61.1386 O.2     1  ZINC001053792610   -0.5100
     17 C17       -11.7618   -0.6267   59.1539 C.3     1  ZINC001053792610    0.0800
     18 H18       -11.5393   -0.4691   58.0986 H       1  ZINC001053792610    0.1300
     19 C19       -11.9932   -2.1230   59.4406 C.3     1  ZINC001053792610    0.0500
     20 O20       -13.3653   -2.1806   59.9275 O.3     1  ZINC001053792610   -0.3200
     21 C21       -13.8864   -0.9487   59.9399 C.2     1  ZINC001053792610    0.6500
     22 O22       -15.0212   -0.7124   60.3042 O.2     1  ZINC001053792610   -0.5100
     23 N23       -13.0416    0.0039   59.5119 N.am    1  ZINC001053792610   -0.7100
     24 C24        -6.9940   -0.3151   60.1482 C.3     1  ZINC001053792610    0.0400
     25 O25        -6.4096    0.2485   58.9602 O.3     1  ZINC001053792610   -0.3300
     26 C26        -3.5438    4.2488   56.6021 C.ar    1  ZINC001053792610    0.0600
     27 N27        -2.3369    4.4500   56.1036 N.ar    1  ZINC001053792610   -0.4400
     28 H28        -0.1909    3.6132   54.2416 H       1  ZINC001053792610    0.0800
     29 H29        -0.8394    4.9135   53.2135 H       1  ZINC001053792610    0.0800
     30 H30        -0.2288    5.2880   54.8431 H       1  ZINC001053792610    0.0800
     31 H31        -2.9946    3.8306   52.9119 H       1  ZINC001053792610    0.1700
     32 H32        -6.2262    4.4720   56.9977 H       1  ZINC001053792610    0.1000
     33 H33        -6.6842    3.5844   55.5244 H       1  ZINC001053792610    0.0600
     34 H34        -8.0748    2.7597   57.3595 H       1  ZINC001053792610    0.0800
     35 H35        -7.6579    1.0883   56.7848 H       1  ZINC001053792610    0.0900
     36 H36        -4.8264    2.3675   58.9266 H       1  ZINC001053792610    0.1000
     37 H37        -6.1136    3.6457   58.8430 H       1  ZINC001053792610    0.0800
     38 H38        -7.3864    2.4426   60.7200 H       1  ZINC001053792610    0.1000
     39 H39        -8.7278    2.4614   59.5275 H       1  ZINC001053792610    0.1000
     40 H40        -9.2005   -0.3510   58.6354 H       1  ZINC001053792610    0.4000
     41 H41       -11.8870   -2.7079   58.5271 H       1  ZINC001053792610    0.1200
     42 H42       -11.3013   -2.4771   60.2049 H       1  ZINC001053792610    0.1100
     43 H43       -13.2428    0.9509   59.4520 H       1  ZINC001053792610    0.4400
     44 H44        -6.3235   -0.1855   60.9977 H       1  ZINC001053792610    0.0800
     45 H45        -7.2139   -1.3720   59.9968 H       1  ZINC001053792610    0.0900
     46 H46        -3.7167    4.3654   57.6618 H       1  ZINC001053792610    0.1600
@<TRIPOS>BOND
     1     1     2    1
     2     1    28    1
     3     1    29    1
     4     1    30    1
     5     2    27   ar
     6     2     3   ar
     7     3     4   ar
     8     3    31    1
     9     4     5   ar
    10     5     6    1
    11     5    26   ar
    12     6     7    1
    13     6    32    1
    14     6    33    1
    15     7    10    1
    16     7     8    1
    17     8     9    1
    18     8    34    1
    19     8    35    1
    20     9    25    1
    21     9    10    1
    22     9    11    1
    23    10    36    1
    24    10    37    1
    25    11    12    1
    26    11    38    1
    27    11    39    1
    28    12    13    1
    29    12    14    1
    30    12    24    1
    31    14    15   am
    32    14    40    1
    33    15    16    2
    34    15    17    1
    35    17    18    1
    36    17    23    1
    37    17    19    1
    38    19    20    1
    39    19    41    1
    40    19    42    1
    41    20    21    1
    42    21    22    2
    43    21    23   am
    44    23    43    1
    45    24    25    1
    46    24    44    1
    47    24    45    1
    48    26    27   ar
    49    26    46    1
@<TRIPOS>SUBSTRUCTURE
     1 ZINC001053792610        1 TEMP              0 ****  ****    0 ROOT


##########                                Name:    ZINC001009984555
##########                DOCK_Rotatable_Bonds:                   7
##########                         Heavy_Atoms:                  23
##########                    Molecular_Weight:             338.446
##########                DOCK_Rotatable_Bonds:                   7
##########                       Formal_Charge:           0.0400002
##########                     HBond_Acceptors:                   6
##########                        HBond_Donors:                   1
##########                         Heavy_Atoms:                  23
##########                          Grid_Score:          -27.020844
##########                     Grid_vdw_energy:          -26.620800
##########                      Grid_es_energy:           -0.400043
##########           Internal_energy_repulsive:           13.845646

@<TRIPOS>MOLECULE
ZINC001009984555
 46 47 1 0 0
SMALL
USER_CHARGES


@<TRIPOS>ATOM
      1 C1        -14.8094   -4.1021   57.5307 C.3     1  ZINC001009984555   -0.1400
      2 S2        -15.7305   -3.0048   58.6434 S.3     1  ZINC001009984555   -0.1800
      3 C3        -14.7800   -1.4614   58.5734 C.3     1  ZINC001009984555   -0.1300
      4 C4        -13.4079   -1.6896   59.1532 C.2     1  ZINC001009984555    0.5500
      5 O5        -13.2672   -1.8003   60.3527 O.2     1  ZINC001009984555   -0.5100
      6 N6        -12.3371   -1.7709   58.3388 N.am    1  ZINC001009984555   -0.6100
      7 C7        -12.3634   -1.6467   56.8700 C.3     1  ZINC001009984555    0.1000
      8 C8        -10.9335   -1.1919   56.4849 C.3     1  ZINC001009984555   -0.1100
      9 H9        -10.8138   -0.1178   56.6264 H       1  ZINC001009984555    0.1000
     10 C10       -10.5991   -1.5932   55.0468 C.3     1  ZINC001009984555    0.1300
     11 N11        -9.2891   -1.0493   54.6801 N.am    1  ZINC001009984555   -0.7300
     12 C12        -9.2084    0.0312   53.8785 C.2     1  ZINC001009984555    0.5600
     13 O13       -10.2226    0.5551   53.4609 O.2     1  ZINC001009984555   -0.5200
     14 C14        -7.8864    0.5791   53.5071 C.ar    1  ZINC001009984555   -0.1200
     15 C15        -7.1362   -0.0252   52.4973 C.ar    1  ZINC001009984555   -0.0900
     16 C16        -5.9029    0.4900   52.1545 C.ar    1  ZINC001009984555   -0.1000
     17 C17        -5.4083    1.6033   52.8092 C.ar    1  ZINC001009984555   -0.1200
     18 C18        -6.1473    2.2091   53.8130 C.ar    1  ZINC001009984555    0.0900
     19 F19        -5.6580    3.2964   54.4484 F       1  ZINC001009984555   -0.1300
     20 C20        -7.3863    1.7061   54.1609 C.ar    1  ZINC001009984555   -0.0500
     21 C21        -8.1897    2.3650   55.2524 C.3     1  ZINC001009984555   -0.1200
     22 C22       -10.0699   -1.9864   57.5000 C.3     1  ZINC001009984555   -0.1200
     23 C23       -10.9485   -1.9916   58.7685 C.3     1  ZINC001009984555    0.1400
     24 H24       -10.8698   -2.9562   59.2700 H       1  ZINC001009984555    0.0800
     25 C25       -10.5024   -0.8754   59.7150 C.3     1  ZINC001009984555   -0.1700
     26 H26       -13.7904   -4.2206   57.8988 H       1  ZINC001009984555    0.0800
     27 H27       -15.2981   -5.0757   57.4940 H       1  ZINC001009984555    0.1100
     28 H28       -14.7865   -3.6692   56.5306 H       1  ZINC001009984555    0.0800
     29 H29       -14.6872   -1.1386   57.5364 H       1  ZINC001009984555    0.1100
     30 H30       -15.2941   -0.6916   59.1490 H       1  ZINC001009984555    0.1100
     31 H31       -12.5916   -2.6092   56.4120 H       1  ZINC001009984555    0.0800
     32 H32       -13.0946   -0.8978   56.5656 H       1  ZINC001009984555    0.0800
     33 H33       -10.5759   -2.6803   54.9689 H       1  ZINC001009984555    0.0800
     34 H34       -11.3586   -1.1969   54.3730 H       1  ZINC001009984555    0.0800
     35 H35        -8.4798   -1.4667   55.0144 H       1  ZINC001009984555    0.4000
     36 H36        -7.5202   -0.8952   51.9853 H       1  ZINC001009984555    0.1300
     37 H37        -5.3222    0.0224   51.3731 H       1  ZINC001009984555    0.1400
     38 H38        -4.4420    2.0020   52.5373 H       1  ZINC001009984555    0.1400
     39 H39        -8.9138    3.0482   54.8086 H       1  ZINC001009984555    0.0800
     40 H40        -8.7148    1.6026   55.8278 H       1  ZINC001009984555    0.1000
     41 H41        -7.5216    2.9208   55.9104 H       1  ZINC001009984555    0.0600
     42 H42        -9.8933   -3.0016   57.1446 H       1  ZINC001009984555    0.0900
     43 H43        -9.1269   -1.4732   57.6888 H       1  ZINC001009984555    0.0900
     44 H44       -10.6007    0.0874   59.2133 H       1  ZINC001009984555    0.0600
     45 H45       -11.1270   -0.8852   60.6082 H       1  ZINC001009984555    0.0700
     46 H46        -9.4616   -1.0331   59.9977 H       1  ZINC001009984555    0.0700
@<TRIPOS>BOND
     1     1     2    1
     2     1    26    1
     3     1    27    1
     4     1    28    1
     5     2     3    1
     6     3     4    1
     7     3    29    1
     8     3    30    1
     9     4     5    2
    10     4     6   am
    11     6    23    1
    12     6     7    1
    13     7     8    1
    14     7    31    1
    15     7    32    1
    16     8     9    1
    17     8    10    1
    18     8    22    1
    19    10    11    1
    20    10    33    1
    21    10    34    1
    22    11    12   am
    23    11    35    1
    24    12    13    2
    25    12    14    1
    26    14    20   ar
    27    14    15   ar
    28    15    16   ar
    29    15    36    1
    30    16    17   ar
    31    16    37    1
    32    17    18   ar
    33    17    38    1
    34    18    19    1
    35    18    20   ar
    36    20    21    1
    37    21    39    1
    38    21    40    1
    39    21    41    1
    40    22    23    1
    41    22    42    1
    42    22    43    1
    43    23    24    1
    44    23    25    1
    45    25    44    1
    46    25    45    1
    47    25    46    1
@<TRIPOS>SUBSTRUCTURE
     1 ZINC001009984555        1 TEMP              0 ****  ****    0 ROOT


##########                                Name:    ZINC000550952205
##########                DOCK_Rotatable_Bonds:                   7
##########                         Heavy_Atoms:                  28
##########                    Molecular_Weight:             407.484
##########                DOCK_Rotatable_Bonds:                   7
##########                       Formal_Charge:        -2.68221e-07
##########                     HBond_Acceptors:                   8
##########                        HBond_Donors:                   2
##########                         Heavy_Atoms:                  28
##########                          Grid_Score:          -26.990387
##########                     Grid_vdw_energy:          -27.386600
##########                      Grid_es_energy:            0.396213
##########           Internal_energy_repulsive:            6.362445

@<TRIPOS>MOLECULE
ZINC000550952205
 51 54 1 0 0
SMALL
USER_CHARGES


@<TRIPOS>ATOM
      1 O1         -1.4974    1.0969   49.4981 O.2     1  ZINC000550952205   -0.5100
      2 C2         -1.3891    1.7923   50.4868 C.2     1  ZINC000550952205    0.5100
      3 N3         -0.1913    2.3160   50.8146 N.am    1  ZINC000550952205   -0.7000
      4 C4          0.9813    2.0411   49.9804 C.3     1  ZINC000550952205    0.1200
      5 C5          2.2533    2.3690   50.7648 C.3     1  ZINC000550952205   -0.0900
      6 H6          2.2430    1.8389   51.7173 H       1  ZINC000550952205    0.1000
      7 C7          3.4600    1.9529   49.9679 C.3     1  ZINC000550952205   -0.1300
      8 C8          4.6142    1.4585   50.8607 C.3     1  ZINC000550952205   -0.1200
      9 C9          4.8083    2.3242   52.1203 C.3     1  ZINC000550952205   -0.1300
     10 C10         4.6825    3.7958   51.8325 C.3     1  ZINC000550952205   -0.1500
     11 C11         3.2277    4.2266   52.1096 C.3     1  ZINC000550952205    0.3000
     12 F12         2.7809    3.5909   53.2731 F       1  ZINC000550952205   -0.2000
     13 F13         3.1953    5.6109   52.3093 F       1  ZINC000550952205   -0.2000
     14 C14         2.3285    3.8885   51.0184 C.3     1  ZINC000550952205   -0.1700
     15 C15        -2.5843    2.0725   51.3371 C.2     1  ZINC000550952205    0.5100
     16 O16        -2.4437    2.5577   52.4408 O.2     1  ZINC000550952205   -0.4900
     17 N17        -3.8192    1.7867   50.8788 N.am    1  ZINC000550952205   -0.6400
     18 C18        -4.9380    2.0491   51.6748 C.ar    1  ZINC000550952205    0.1500
     19 C19        -5.2101    3.3520   52.0888 C.ar    1  ZINC000550952205   -0.1200
     20 C20        -6.2956    3.6224   52.8637 C.ar    1  ZINC000550952205   -0.0400
     21 C21        -7.1664    2.5879   53.2627 C.ar    1  ZINC000550952205    0.0800
     22 N22        -8.2797    2.6464   54.0190 N.2     1  ZINC000550952205   -0.4700
     23 C23        -8.9070    1.5549   54.2446 C.2     1  ZINC000550952205    0.1200
     24 C24       -10.1649    1.4549   55.0685 C.3     1  ZINC000550952205   -0.1100
     25 C25       -11.2946    0.5752   54.5292 C.3     1  ZINC000550952205   -0.1500
     26 C26       -10.4702    0.1103   55.7313 C.3     1  ZINC000550952205   -0.1500
     27 S27        -8.1422    0.2262   53.4953 S.3     1  ZINC000550952205    0.1200
     28 C28        -6.8908    1.2806   52.8448 C.ar    1  ZINC000550952205   -0.1700
     29 C29        -5.7803    1.0165   52.0479 C.ar    1  ZINC000550952205   -0.0700
     30 H30        -0.1056    2.8750   51.6026 H       1  ZINC000550952205    0.4200
     31 H31         0.9888    0.9878   49.6999 H       1  ZINC000550952205    0.0800
     32 H32         0.9400    2.6562   49.0816 H       1  ZINC000550952205    0.0800
     33 H33         3.1735    1.1521   49.2863 H       1  ZINC000550952205    0.0700
     34 H34         3.8068    2.8045   49.3826 H       1  ZINC000550952205    0.0700
     35 H35         4.4071    0.4332   51.1674 H       1  ZINC000550952205    0.0700
     36 H36         5.5370    1.4699   50.2807 H       1  ZINC000550952205    0.0700
     37 H37         4.0582    2.0441   52.8598 H       1  ZINC000550952205    0.0800
     38 H38         5.7980    2.1289   52.5333 H       1  ZINC000550952205    0.0700
     39 H39         5.3593    4.3544   52.4790 H       1  ZINC000550952205    0.0900
     40 H40         4.9283    3.9869   50.7879 H       1  ZINC000550952205    0.1000
     41 H41         2.6786    4.3760   50.1085 H       1  ZINC000550952205    0.1000
     42 H42         1.3314    4.2604   51.2545 H       1  ZINC000550952205    0.1000
     43 H43        -3.9316    1.3992   49.9968 H       1  ZINC000550952205    0.4300
     44 H44        -4.5522    4.1555   51.7918 H       1  ZINC000550952205    0.1400
     45 H45        -6.4914    4.6375   53.1759 H       1  ZINC000550952205    0.1400
     46 H46       -10.4449    2.3583   55.6104 H       1  ZINC000550952205    0.1300
     47 H47       -12.3183    0.8998   54.7162 H       1  ZINC000550952205    0.1000
     48 H48       -11.1280    0.0688   53.5785 H       1  ZINC000550952205    0.1100
     49 H49        -9.7613   -0.7022   55.5715 H       1  ZINC000550952205    0.1000
     50 H50       -10.9515    0.1288   56.7092 H       1  ZINC000550952205    0.1100
     51 H51        -5.5751    0.0071   51.7236 H       1  ZINC000550952205    0.1400
@<TRIPOS>BOND
     1     1     2    2
     2     2     3   am
     3     2    15    1
     4     3     4    1
     5     3    30    1
     6     4     5    1
     7     4    31    1
     8     4    32    1
     9     5     6    1
    10     5    14    1
    11     5     7    1
    12     7     8    1
    13     7    33    1
    14     7    34    1
    15     8     9    1
    16     8    35    1
    17     8    36    1
    18     9    10    1
    19     9    37    1
    20     9    38    1
    21    10    11    1
    22    10    39    1
    23    10    40    1
    24    11    12    1
    25    11    13    1
    26    11    14    1
    27    14    41    1
    28    14    42    1
    29    15    16    2
    30    15    17   am
    31    17    18    1
    32    17    43    1
    33    18    29   ar
    34    18    19   ar
    35    19    20   ar
    36    19    44    1
    37    20    21   ar
    38    20    45    1
    39    21    28   ar
    40    21    22    1
    41    22    23    2
    42    23    24    1
    43    23    27    1
    44    24    26    1
    45    24    25    1
    46    24    46    1
    47    25    26    1
    48    25    47    1
    49    25    48    1
    50    26    49    1
    51    26    50    1
    52    27    28    1
    53    28    29   ar
    54    29    51    1
@<TRIPOS>SUBSTRUCTURE
     1 ZINC000550952205        1 TEMP              0 ****  ****    0 ROOT


##########                                Name:    ZINC000763800048
##########                DOCK_Rotatable_Bonds:                   8
##########                         Heavy_Atoms:                  23
##########                    Molecular_Weight:             329.783
##########                DOCK_Rotatable_Bonds:                   8
##########                       Formal_Charge:           0.0199994
##########                     HBond_Acceptors:                   5
##########                        HBond_Donors:                   1
##########                         Heavy_Atoms:                  23
##########                          Grid_Score:          -26.969015
##########                     Grid_vdw_energy:          -26.696484
##########                      Grid_es_energy:           -0.272531
##########           Internal_energy_repulsive:            5.211683

@<TRIPOS>MOLECULE
ZINC000763800048
 39 40 1 0 0
SMALL
USER_CHARGES


@<TRIPOS>ATOM
      1 C1          0.4059   -1.6964   61.1866 C.3     1  ZINC000763800048    0.0400
      2 O2          1.2505   -0.6209   60.6985 O.3     1  ZINC000763800048   -0.3600
      3 C3          1.2648    0.5150   61.4135 C.2     1  ZINC000763800048    0.4600
      4 O4          0.5414    0.6334   62.3740 O.2     1  ZINC000763800048   -0.4900
      5 C5          2.1831    1.6425   61.0182 C.3     1  ZINC000763800048   -0.0700
      6 C6          2.1463    1.8193   59.5220 C.ar    1  ZINC000763800048   -0.0600
      7 C7          3.3268    1.8890   58.8056 C.ar    1  ZINC000763800048   -0.1200
      8 C8          3.2974    2.0513   57.4324 C.ar    1  ZINC000763800048   -0.1000
      9 C9          2.0881    2.1436   56.7722 C.ar    1  ZINC000763800048   -0.1100
     10 C10         0.9002    2.0734   57.4890 C.ar    1  ZINC000763800048    0.1500
     11 N11        -0.3261    2.1664   56.8237 N.am    1  ZINC000763800048   -0.6700
     12 C12        -0.6637    3.3064   56.1891 C.2     1  ZINC000763800048    0.5500
     13 O13         0.0989    4.2550   56.1950 O.2     1  ZINC000763800048   -0.5200
     14 C14        -1.9471    3.4038   55.4927 C.2     1  ZINC000763800048   -0.2100
     15 C15        -1.9777    3.5463   54.1519 C.2     1  ZINC000763800048   -0.0100
     16 C16        -3.2683    3.6425   53.4515 C.ar    1  ZINC000763800048   -0.0800
     17 C17        -3.5363    2.8160   52.3554 C.ar    1  ZINC000763800048   -0.0900
     18 C18        -4.7473    2.9116   51.7041 C.ar    1  ZINC000763800048   -0.1100
     19 C19        -5.6978    3.8241   52.1325 C.ar    1  ZINC000763800048   -0.0200
     20 Cl20       -7.2200    3.9380   51.3058 Cl      1  ZINC000763800048   -0.0600
     21 C21        -5.4395    4.6457   53.2177 C.ar    1  ZINC000763800048   -0.1100
     22 C22        -4.2351    4.5570   53.8822 C.ar    1  ZINC000763800048   -0.0800
     23 C23         0.9332    1.9057   58.8672 C.ar    1  ZINC000763800048   -0.1300
     24 H24         0.4868   -2.5538   60.5183 H       1  ZINC000763800048    0.1000
     25 H25         0.7266   -1.9846   62.1876 H       1  ZINC000763800048    0.0600
     26 H26        -0.6298   -1.3585   61.2200 H       1  ZINC000763800048    0.0600
     27 H27         1.8564    2.5635   61.5009 H       1  ZINC000763800048    0.1200
     28 H28         3.2007    1.4093   61.3314 H       1  ZINC000763800048    0.1200
     29 H29         4.2739    1.8171   59.3194 H       1  ZINC000763800048    0.1200
     30 H30         4.2213    2.1061   56.8758 H       1  ZINC000763800048    0.1300
     31 H31         2.0659    2.2705   55.6999 H       1  ZINC000763800048    0.1400
     32 H32        -0.9338    1.4104   56.8189 H       1  ZINC000763800048    0.4100
     33 H33        -2.8697    3.3615   56.0524 H       1  ZINC000763800048    0.1300
     34 H34        -1.0551    3.5898   53.5922 H       1  ZINC000763800048    0.1400
     35 H35        -2.7959    2.1047   52.0200 H       1  ZINC000763800048    0.1400
     36 H36        -4.9555    2.2740   50.8577 H       1  ZINC000763800048    0.1400
     37 H37        -6.1851    5.3547   53.5462 H       1  ZINC000763800048    0.1400
     38 H38        -4.0351    5.1978   54.7281 H       1  ZINC000763800048    0.1400
     39 H39         0.0114    1.8503   59.4273 H       1  ZINC000763800048    0.1300
@<TRIPOS>BOND
     1     1     2    1
     2     1    24    1
     3     1    25    1
     4     1    26    1
     5     2     3    1
     6     3     4    2
     7     3     5    1
     8     5     6    1
     9     5    27    1
    10     5    28    1
    11     6    23   ar
    12     6     7   ar
    13     7     8   ar
    14     7    29    1
    15     8     9   ar
    16     8    30    1
    17     9    10   ar
    18     9    31    1
    19    10    11    1
    20    10    23   ar
    21    11    12   am
    22    11    32    1
    23    12    13    2
    24    12    14    1
    25    14    15    2
    26    14    33    1
    27    15    16    1
    28    15    34    1
    29    16    22   ar
    30    16    17   ar
    31    17    18   ar
    32    17    35    1
    33    18    19   ar
    34    18    36    1
    35    19    20    1
    36    19    21   ar
    37    21    22   ar
    38    21    37    1
    39    22    38    1
    40    23    39    1
@<TRIPOS>SUBSTRUCTURE
     1 ZINC000763800048        1 TEMP              0 ****  ****    0 ROOT


##########                                Name:    ZINC000962730513
##########                DOCK_Rotatable_Bonds:                   6
##########                         Heavy_Atoms:                  24
##########                    Molecular_Weight:             342.465
##########                DOCK_Rotatable_Bonds:                   6
##########                       Formal_Charge:         -0.00999998
##########                     HBond_Acceptors:                   6
##########                        HBond_Donors:                   1
##########                         Heavy_Atoms:                  24
##########                          Grid_Score:          -26.965239
##########                     Grid_vdw_energy:          -26.776497
##########                      Grid_es_energy:           -0.188741
##########           Internal_energy_repulsive:            8.548562

@<TRIPOS>MOLECULE
ZINC000962730513
 46 49 1 0 0
SMALL
USER_CHARGES


@<TRIPOS>ATOM
      1 C1        -13.9379    0.2926   59.7619 C.3     1  ZINC000962730513   -0.1400
      2 C2        -13.2853   -1.0903   59.7108 C.3     1  ZINC000962730513   -0.0800
      3 C3        -14.1275   -2.0124   58.8674 C.2     1  ZINC000962730513   -0.0100
      4 C4        -14.1349   -1.9836   57.5011 C.2     1  ZINC000962730513   -0.2800
      5 C5        -13.3447   -1.0749   56.6655 C.2     1  ZINC000962730513    0.6000
      6 O6        -13.8630   -0.5140   55.7178 O.2     1  ZINC000962730513   -0.5200
      7 N7        -12.0442   -0.8604   56.9466 N.am    1  ZINC000962730513   -0.7000
      8 C8        -11.2539    0.0465   56.1103 C.3     1  ZINC000962730513    0.1200
      9 H9        -11.7175    1.0088   55.8933 H       1  ZINC000962730513    0.1400
     10 C10       -10.3840   -0.5794   55.0183 C.3     1  ZINC000962730513   -0.1700
     11 H11       -10.4257   -1.6554   54.8491 H       1  ZINC000962730513    0.1200
     12 C12        -9.9416    0.3135   53.8393 C.3     1  ZINC000962730513    0.0700
     13 N13        -8.6876    0.9578   54.3076 N.3     1  ZINC000962730513   -0.5000
     14 C14        -8.4057    2.1796   53.5421 C.3     1  ZINC000962730513    0.1100
     15 C15        -7.0418    2.0731   52.9102 C.ar    1  ZINC000962730513    0.3200
     16 N16        -6.6192    0.8973   52.4908 N.ar    1  ZINC000962730513   -0.5100
     17 C17        -5.4273    0.7654   51.9311 C.ar    1  ZINC000962730513    0.1500
     18 C18        -4.6217    1.8842   51.7891 C.ar    1  ZINC000962730513   -0.1900
     19 C19        -3.2580    1.7778   51.1568 C.3     1  ZINC000962730513   -0.1100
     20 C20        -5.1007    3.1033   52.2423 C.ar    1  ZINC000962730513    0.1500
     21 N21        -6.3054    3.1592   52.7870 N.ar    1  ZINC000962730513   -0.5000
     22 C22        -8.9503    1.2729   55.7354 C.3     1  ZINC000962730513    0.0700
     23 C23        -9.7337    0.0185   56.2814 C.3     1  ZINC000962730513   -0.1700
     24 H24        -9.2503   -0.5833   57.0509 H       1  ZINC000962730513    0.1300
     25 S25       -15.2438   -3.2117   56.9063 S.3     1  ZINC000962730513    0.1900
     26 C26       -15.6355   -3.6943   58.4953 C.2     1  ZINC000962730513   -0.2200
     27 C27       -14.9603   -2.9700   59.3956 C.2     1  ZINC000962730513   -0.1500
     28 H28       -14.0165    0.6947   58.7518 H       1  ZINC000962730513    0.0600
     29 H29       -14.9332    0.2088   60.1981 H       1  ZINC000962730513    0.0500
     30 H30       -13.3287    0.9596   60.3720 H       1  ZINC000962730513    0.0600
     31 H31       -12.2899   -1.0064   59.2746 H       1  ZINC000962730513    0.1000
     32 H32       -13.2066   -1.4924   60.7209 H       1  ZINC000962730513    0.0700
     33 H33       -11.6314   -1.3066   57.7025 H       1  ZINC000962730513    0.4000
     34 H34        -9.7497   -0.2930   52.9542 H       1  ZINC000962730513    0.0900
     35 H35       -10.7001    1.0671   53.6276 H       1  ZINC000962730513    0.0500
     36 H36        -9.1585    2.3022   52.7633 H       1  ZINC000962730513    0.1000
     37 H37        -8.4305    3.0406   54.2101 H       1  ZINC000962730513    0.0700
     38 H38        -5.0870   -0.2010   51.5898 H       1  ZINC000962730513    0.1700
     39 H39        -3.3430    1.9331   50.0813 H       1  ZINC000962730513    0.0800
     40 H40        -2.6000    2.5355   51.5824 H       1  ZINC000962730513    0.0700
     41 H41        -2.8444    0.7879   51.3494 H       1  ZINC000962730513    0.0700
     42 H42        -4.5004    3.9961   52.1487 H       1  ZINC000962730513    0.1700
     43 H43        -8.0121    1.3887   56.2780 H       1  ZINC000962730513    0.0800
     44 H44        -9.5537    2.1766   55.8205 H       1  ZINC000962730513    0.0600
     45 H45       -16.3322   -4.4819   58.7416 H       1  ZINC000962730513    0.1700
     46 H46       -15.0681   -3.1213   60.4594 H       1  ZINC000962730513    0.1500
@<TRIPOS>BOND
     1     1     2    1
     2     1    28    1
     3     1    29    1
     4     1    30    1
     5     2     3    1
     6     2    31    1
     7     2    32    1
     8     3    27    1
     9     3     4    2
    10     4     5    1
    11     4    25    1
    12     5     6    2
    13     5     7   am
    14     7     8    1
    15     7    33    1
    16     8     9    1
    17     8    23    1
    18     8    10    1
    19    10    11    1
    20    10    23    1
    21    10    12    1
    22    12    13    1
    23    12    34    1
    24    12    35    1
    25    13    14    1
    26    13    22    1
    27    14    15    1
    28    14    36    1
    29    14    37    1
    30    15    21   ar
    31    15    16   ar
    32    16    17   ar
    33    17    18   ar
    34    17    38    1
    35    18    19    1
    36    18    20   ar
    37    19    39    1
    38    19    40    1
    39    19    41    1
    40    20    21   ar
    41    20    42    1
    42    22    23    1
    43    22    43    1
    44    22    44    1
    45    23    24    1
    46    25    26    1
    47    26    27    2
    48    26    45    1
    49    27    46    1
@<TRIPOS>SUBSTRUCTURE
     1 ZINC000962730513        1 TEMP              0 ****  ****    0 ROOT


##########                                Name:    ZINC000623581528
##########                DOCK_Rotatable_Bonds:                   5
##########                         Heavy_Atoms:                  26
##########                    Molecular_Weight:             355.369
##########                DOCK_Rotatable_Bonds:                   5
##########                       Formal_Charge:        -4.47035e-07
##########                     HBond_Acceptors:                   7
##########                        HBond_Donors:                   2
##########                         Heavy_Atoms:                  26
##########                          Grid_Score:          -26.960026
##########                     Grid_vdw_energy:          -26.941853
##########                      Grid_es_energy:           -0.018173
##########           Internal_energy_repulsive:            6.061596

@<TRIPOS>MOLECULE
ZINC000623581528
 44 47 1 0 0
SMALL
USER_CHARGES


@<TRIPOS>ATOM
      1 C1         -8.5210    0.3911   54.2222 C.3     1  ZINC000623581528    0.1000
      2 N2         -7.3749    0.4987   53.3160 N.am    1  ZINC000623581528   -0.5500
      3 C3         -7.0452   -0.3715   52.3411 C.2     1  ZINC000623581528    0.6300
      4 O4         -7.6584   -1.3853   52.0680 O.2     1  ZINC000623581528   -0.4800
      5 O5         -5.9350    0.0543   51.7183 O.3     1  ZINC000623581528   -0.2300
      6 C6         -5.5247    1.2158   52.2840 C.ar    1  ZINC000623581528    0.0400
      7 C7         -4.4578    2.0640   52.0335 C.ar    1  ZINC000623581528   -0.0800
      8 C8         -4.2915    3.2053   52.7942 C.ar    1  ZINC000623581528   -0.0900
      9 C9         -5.1854    3.5062   53.8066 C.ar    1  ZINC000623581528   -0.0900
     10 C10        -4.9953    4.7535   54.6308 C.3     1  ZINC000623581528    0.1800
     11 N11        -4.1988    4.4370   55.8189 N.am    1  ZINC000623581528   -0.7400
     12 C12        -2.8581    4.5707   55.7867 C.2     1  ZINC000623581528    0.7100
     13 O13        -2.3094    4.9525   54.7711 O.2     1  ZINC000623581528   -0.5800
     14 N14        -2.1256    4.2810   56.8803 N.am    1  ZINC000623581528   -0.7300
     15 C15        -0.6684    4.4280   56.8459 C.3     1  ZINC000623581528    0.2000
     16 H16        -0.3975    5.4241   56.4960 H       1  ZINC000623581528    0.1000
     17 C17        -0.0429    3.3516   55.9335 C.3     1  ZINC000623581528   -0.1300
     18 C18         0.2742    2.2162   56.9298 C.3     1  ZINC000623581528   -0.0800
     19 C19         0.4595    2.9023   58.2664 C.ar    1  ZINC000623581528   -0.1000
     20 C20         1.0550    2.4497   59.4318 C.ar    1  ZINC000623581528   -0.0800
     21 C21         1.1102    3.2636   60.5462 C.ar    1  ZINC000623581528   -0.1400
     22 C22         0.5681    4.5365   60.4990 C.ar    1  ZINC000623581528    0.0900
     23 F23         0.6209    5.3353   61.5872 F       1  ZINC000623581528   -0.1400
     24 C24        -0.0275    4.9894   59.3350 C.ar    1  ZINC000623581528   -0.1200
     25 C25        -0.0825    4.1761   58.2186 C.ar    1  ZINC000623581528   -0.0900
     26 C26        -6.2521    2.6664   54.0638 C.ar    1  ZINC000623581528   -0.0800
     27 C27        -6.4291    1.5234   53.3008 C.ar    1  ZINC000623581528    0.0700
     28 H28        -9.3834    0.8880   53.7778 H       1  ZINC000623581528    0.0800
     29 H29        -8.7541   -0.6605   54.3899 H       1  ZINC000623581528    0.0900
     30 H30        -8.2783    0.8656   55.1730 H       1  ZINC000623581528    0.0900
     31 H31        -3.7572    1.8330   51.2449 H       1  ZINC000623581528    0.1500
     32 H32        -3.4596    3.8655   52.5979 H       1  ZINC000623581528    0.1500
     33 H33        -4.4777    5.5064   54.0363 H       1  ZINC000623581528    0.0800
     34 H34        -5.9681    5.1381   54.9373 H       1  ZINC000623581528    0.0800
     35 H35        -4.6365    4.1312   56.6288 H       1  ZINC000623581528    0.4000
     36 H36        -2.5632    3.9752   57.6902 H       1  ZINC000623581528    0.4000
     37 H37        -0.7578    3.0184   55.1812 H       1  ZINC000623581528    0.0900
     38 H38         0.8690    3.7224   55.4656 H       1  ZINC000623581528    0.0900
     39 H39        -0.5566    1.5123   56.9780 H       1  ZINC000623581528    0.0800
     40 H40         1.1901    1.7021   56.6383 H       1  ZINC000623581528    0.0800
     41 H41         1.4781    1.4568   59.4693 H       1  ZINC000623581528    0.1300
     42 H42         1.5753    2.9073   61.4534 H       1  ZINC000623581528    0.1400
     43 H43        -0.4505    5.9824   59.2977 H       1  ZINC000623581528    0.1400
     44 H44        -6.9488    2.9029   54.8544 H       1  ZINC000623581528    0.1400
@<TRIPOS>BOND
     1     1     2    1
     2     1    28    1
     3     1    29    1
     4     1    30    1
     5     2    27    1
     6     2     3   am
     7     3     4    2
     8     3     5    1
     9     5     6    1
    10     6    27   ar
    11     6     7   ar
    12     7     8   ar
    13     7    31    1
    14     8     9   ar
    15     8    32    1
    16     9    10    1
    17     9    26   ar
    18    10    11    1
    19    10    33    1
    20    10    34    1
    21    11    12   am
    22    11    35    1
    23    12    13    2
    24    12    14   am
    25    14    15    1
    26    14    36    1
    27    15    16    1
    28    15    25    1
    29    15    17    1
    30    17    18    1
    31    17    37    1
    32    17    38    1
    33    18    19    1
    34    18    39    1
    35    18    40    1
    36    19    25   ar
    37    19    20   ar
    38    20    21   ar
    39    20    41    1
    40    21    22   ar
    41    21    42    1
    42    22    23    1
    43    22    24   ar
    44    24    25   ar
    45    24    43    1
    46    26    27   ar
    47    26    44    1
@<TRIPOS>SUBSTRUCTURE
     1 ZINC000623581528        1 TEMP              0 ****  ****    0 ROOT


##########                                Name:    ZINC000192150625
##########                DOCK_Rotatable_Bonds:                   5
##########                         Heavy_Atoms:                  28
##########                    Molecular_Weight:             377.443
##########                DOCK_Rotatable_Bonds:                   5
##########                       Formal_Charge:           0.0199997
##########                     HBond_Acceptors:                   6
##########                        HBond_Donors:                   1
##########                         Heavy_Atoms:                  28
##########                          Grid_Score:          -26.957453
##########                     Grid_vdw_energy:          -24.003365
##########                      Grid_es_energy:           -2.954087
##########           Internal_energy_repulsive:           21.473263

@<TRIPOS>MOLECULE
ZINC000192150625
 51 54 1 0 0
SMALL
USER_CHARGES


@<TRIPOS>ATOM
      1 C1         -6.5415    0.6139   63.3158 C.3     1  ZINC000192150625   -0.0800
      2 C2         -7.9804    0.7470   62.8881 C.2     1  ZINC000192150625    0.0400
      3 C3         -8.4181    0.6421   61.6261 C.2     1  ZINC000192150625   -0.1800
      4 C4         -7.5854    0.3761   60.3986 C.3     1  ZINC000192150625   -0.0800
      5 C5         -9.8720    0.8380   61.6795 C.ar    1  ZINC000192150625   -0.1000
      6 C6        -10.8879    0.8481   60.7259 C.ar    1  ZINC000192150625   -0.0700
      7 C7        -12.1952    1.0694   61.1236 C.ar    1  ZINC000192150625    0.1200
      8 N8        -13.2217    1.0810   60.1734 N.am    1  ZINC000192150625   -0.6400
      9 C9        -14.1194    0.0764   60.1390 C.2     1  ZINC000192150625    0.5100
     10 O10       -14.0373   -0.8385   60.9326 O.2     1  ZINC000192150625   -0.4900
     11 C11       -15.2154    0.0887   59.1245 C.2     1  ZINC000192150625    0.5100
     12 O12       -16.2025    0.7710   59.3059 O.2     1  ZINC000192150625   -0.5200
     13 N13       -15.1081   -0.6578   58.0075 N.am    1  ZINC000192150625   -0.5800
     14 C14       -16.1751   -0.6513   56.9974 C.3     1  ZINC000192150625    0.0500
     15 C15       -15.5620   -0.3144   55.6346 C.3     1  ZINC000192150625   -0.1200
     16 C16       -14.4212   -1.2903   55.3375 C.3     1  ZINC000192150625   -0.0500
     17 C17       -13.8379   -0.9832   53.9824 C.ar    1  ZINC000192150625   -0.0300
     18 C18       -12.4817   -1.1409   53.7412 C.ar    1  ZINC000192150625   -0.1700
     19 C19       -11.9826   -0.8495   52.4857 C.ar    1  ZINC000192150625    0.1000
     20 N20       -12.7798   -0.4257   51.5246 N.ar    1  ZINC000192150625   -0.4900
     21 C21       -14.0743   -0.2641   51.7181 C.ar    1  ZINC000192150625    0.1000
     22 C22       -14.6456   -0.5416   52.9455 C.ar    1  ZINC000192150625   -0.1700
     23 C23       -13.3341   -1.1470   56.4050 C.3     1  ZINC000192150625   -0.1200
     24 C24       -13.9192   -1.4887   57.7737 C.3     1  ZINC000192150625    0.1100
     25 C25       -12.4904    1.2803   62.4690 C.ar    1  ZINC000192150625   -0.1100
     26 C26       -11.4906    1.2714   63.4164 C.ar    1  ZINC000192150625   -0.0800
     27 C27       -10.1729    1.0509   63.0355 C.ar    1  ZINC000192150625    0.0500
     28 O28        -9.0112    0.9824   63.7183 O.3     1  ZINC000192150625   -0.1900
     29 H29        -6.4706    0.7384   64.3964 H       1  ZINC000192150625    0.0800
     30 H30        -6.1697   -0.3724   63.0385 H       1  ZINC000192150625    0.0900
     31 H31        -5.9433    1.3798   62.8220 H       1  ZINC000192150625    0.0900
     32 H32        -7.5160   -0.6991   60.2326 H       1  ZINC000192150625    0.0700
     33 H33        -8.0518    0.8479   59.5338 H       1  ZINC000192150625    0.0700
     34 H34        -6.5859    0.7869   60.5416 H       1  ZINC000192150625    0.0700
     35 H35       -10.6568    0.6848   59.6836 H       1  ZINC000192150625    0.1400
     36 H36       -13.2874    1.8120   59.5392 H       1  ZINC000192150625    0.4300
     37 H37       -16.6434   -1.6347   56.9543 H       1  ZINC000192150625    0.0700
     38 H38       -16.9208    0.0996   57.2584 H       1  ZINC000192150625    0.1600
     39 H39       -16.3252   -0.4003   54.8610 H       1  ZINC000192150625    0.0800
     40 H40       -15.1742    0.7042   55.6519 H       1  ZINC000192150625    0.0700
     41 H41       -14.8049   -2.3105   55.3450 H       1  ZINC000192150625    0.0900
     42 H42       -11.8236   -1.4870   54.5244 H       1  ZINC000192150625    0.1300
     43 H43       -10.9274   -0.9698   52.2897 H       1  ZINC000192150625    0.1600
     44 H44       -14.6957    0.0851   50.9069 H       1  ZINC000192150625    0.1600
     45 H45       -15.7064   -0.4076   53.0977 H       1  ZINC000192150625    0.1300
     46 H46       -12.5113   -1.8258   56.1799 H       1  ZINC000192150625    0.0800
     47 H47       -12.9671   -0.1206   56.4151 H       1  ZINC000192150625    0.0700
     48 H48       -13.1770   -1.2929   58.5476 H       1  ZINC000192150625    0.1000
     49 H49       -14.2053   -2.5402   57.7966 H       1  ZINC000192150625    0.0800
     50 H50       -13.5127    1.4527   62.7717 H       1  ZINC000192150625    0.1400
     51 H51       -11.7312    1.4360   64.4563 H       1  ZINC000192150625    0.1400
@<TRIPOS>BOND
     1     1     2    1
     2     1    29    1
     3     1    30    1
     4     1    31    1
     5     2    28    1
     6     2     3    2
     7     3     4    1
     8     3     5    1
     9     4    32    1
    10     4    33    1
    11     4    34    1
    12     5    27   ar
    13     5     6   ar
    14     6     7   ar
    15     6    35    1
    16     7     8    1
    17     7    25   ar
    18     8     9   am
    19     8    36    1
    20     9    10    2
    21     9    11    1
    22    11    12    2
    23    11    13   am
    24    13    24    1
    25    13    14    1
    26    14    15    1
    27    14    37    1
    28    14    38    1
    29    15    16    1
    30    15    39    1
    31    15    40    1
    32    16    17    1
    33    16    23    1
    34    16    41    1
    35    17    22   ar
    36    17    18   ar
    37    18    19   ar
    38    18    42    1
    39    19    20   ar
    40    19    43    1
    41    20    21   ar
    42    21    22   ar
    43    21    44    1
    44    22    45    1
    45    23    24    1
    46    23    46    1
    47    23    47    1
    48    24    48    1
    49    24    49    1
    50    25    26   ar
    51    25    50    1
    52    26    27   ar
    53    26    51    1
    54    27    28    1
@<TRIPOS>SUBSTRUCTURE
     1 ZINC000192150625        1 TEMP              0 ****  ****    0 ROOT


##########                                Name:    ZINC000057429281
##########                DOCK_Rotatable_Bonds:                  10
##########                         Heavy_Atoms:                  23
##########                    Molecular_Weight:             331.295
##########                DOCK_Rotatable_Bonds:                  10
##########                       Formal_Charge:          -0.0100002
##########                     HBond_Acceptors:                   9
##########                        HBond_Donors:                   5
##########                         Heavy_Atoms:                  23
##########                          Grid_Score:          -26.952280
##########                     Grid_vdw_energy:          -27.253138
##########                      Grid_es_energy:            0.300857
##########           Internal_energy_repulsive:            9.821198

@<TRIPOS>MOLECULE
ZINC000057429281
 39 39 1 0 0
SMALL
USER_CHARGES


@<TRIPOS>ATOM
      1 C1        -10.7710   -1.1035   52.9347 C.3     1  ZINC000057429281   -0.1500
      2 C2         -9.5692   -1.0889   53.8813 C.3     1  ZINC000057429281   -0.0400
      3 H3         -9.1615   -2.0962   53.9665 H       1  ZINC000057429281    0.0900
      4 C4        -10.0128   -0.5999   55.2614 C.3     1  ZINC000057429281   -0.1300
      5 C5        -10.5913   -1.7528   56.0408 C.2     1  ZINC000057429281    0.5200
      6 O6         -9.9623   -2.7833   56.1560 O.2     1  ZINC000057429281   -0.5300
      7 N7        -11.8077   -1.6387   56.6098 N.am    1  ZINC000057429281   -0.7000
      8 C8        -12.3709   -2.7600   57.3660 C.3     1  ZINC000057429281    0.1100
      9 C9        -11.8921   -2.6941   58.7934 C.2     1  ZINC000057429281    0.5200
     10 N10       -12.5113   -1.8845   59.6751 N.am    1  ZINC000057429281   -0.8500
     11 O11       -10.9497   -3.3696   59.1487 O.2     1  ZINC000057429281   -0.5100
     12 C12       -13.8755   -2.6806   57.3365 C.2     1  ZINC000057429281    0.5300
     13 N13       -14.6126   -3.7971   57.4996 N.am    1  ZINC000057429281   -0.8400
     14 O14       -14.4231   -1.6120   57.1661 O.2     1  ZINC000057429281   -0.5100
     15 C15        -8.5119   -0.1636   53.3364 C.ar    1  ZINC000057429281   -0.0500
     16 C16        -7.4306   -0.6795   52.6468 C.ar    1  ZINC000057429281   -0.1200
     17 C17        -6.4608    0.1692   52.1469 C.ar    1  ZINC000057429281   -0.0700
     18 C18        -6.5724    1.5340   52.3363 C.ar    1  ZINC000057429281   -0.1900
     19 C19        -5.5149    2.4593   51.7916 C.3     1  ZINC000057429281    0.5100
     20 F20        -6.1168    3.6342   51.3285 F       1  ZINC000057429281   -0.1800
     21 F21        -4.6016    2.7712   52.8044 F       1  ZINC000057429281   -0.1800
     22 F22        -4.8446    1.8314   50.7363 F       1  ZINC000057429281   -0.1800
     23 C23        -7.6544    2.0500   53.0247 C.ar    1  ZINC000057429281   -0.0700
     24 C24        -8.6262    1.2016   53.5213 C.ar    1  ZINC000057429281   -0.1100
     25 H25       -10.4550   -1.4519   51.9515 H       1  ZINC000057429281    0.0600
     26 H26       -11.5358   -1.7729   53.3288 H       1  ZINC000057429281    0.0800
     27 H27       -11.1788   -0.0962   52.8495 H       1  ZINC000057429281    0.0500
     28 H28        -9.1543   -0.1941   55.7965 H       1  ZINC000057429281    0.1000
     29 H29       -10.7691    0.1764   55.1461 H       1  ZINC000057429281    0.1000
     30 H30       -12.3104   -0.8141   56.5187 H       1  ZINC000057429281    0.4200
     31 H31       -12.0477   -3.6994   56.9174 H       1  ZINC000057429281    0.1300
     32 H32       -12.2033   -1.8420   60.5939 H       1  ZINC000057429281    0.4000
     33 H33       -13.2650   -1.3440   59.3908 H       1  ZINC000057429281    0.4100
     34 H34       -15.5811   -3.7459   57.4806 H       1  ZINC000057429281    0.4000
     35 H35       -14.1746   -4.6517   57.6361 H       1  ZINC000057429281    0.4100
     36 H36        -7.3434   -1.7458   52.4988 H       1  ZINC000057429281    0.1400
     37 H37        -5.6157   -0.2339   51.6087 H       1  ZINC000057429281    0.1400
     38 H38        -7.7418    3.1164   53.1723 H       1  ZINC000057429281    0.1400
     39 H39        -9.4715    1.6048   54.0591 H       1  ZINC000057429281    0.1400
@<TRIPOS>BOND
     1     1     2    1
     2     1    25    1
     3     1    26    1
     4     1    27    1
     5     2     3    1
     6     2     4    1
     7     2    15    1
     8     4     5    1
     9     4    28    1
    10     4    29    1
    11     5     6    2
    12     5     7   am
    13     7     8    1
    14     7    30    1
    15     8     9    1
    16     8    12    1
    17     8    31    1
    18     9    10   am
    19     9    11    2
    20    10    32    1
    21    10    33    1
    22    12    13   am
    23    12    14    2
    24    13    34    1
    25    13    35    1
    26    15    24   ar
    27    15    16   ar
    28    16    17   ar
    29    16    36    1
    30    17    18   ar
    31    17    37    1
    32    18    19    1
    33    18    23   ar
    34    19    20    1
    35    19    21    1
    36    19    22    1
    37    23    24   ar
    38    23    38    1
    39    24    39    1
@<TRIPOS>SUBSTRUCTURE
     1 ZINC000057429281        1 TEMP              0 ****  ****    0 ROOT


##########                                Name:    ZINC000971513996
##########                DOCK_Rotatable_Bonds:                   6
##########                         Heavy_Atoms:                  27
##########                    Molecular_Weight:             369.464
##########                DOCK_Rotatable_Bonds:                   6
##########                       Formal_Charge:          -0.0300002
##########                     HBond_Acceptors:                   6
##########                        HBond_Donors:                   1
##########                         Heavy_Atoms:                  27
##########                          Grid_Score:          -26.950493
##########                     Grid_vdw_energy:          -27.379309
##########                      Grid_es_energy:            0.428816
##########           Internal_energy_repulsive:           21.229156

@<TRIPOS>MOLECULE
ZINC000971513996
 54 57 1 0 0
SMALL
USER_CHARGES


@<TRIPOS>ATOM
      1 C1         -7.1764    0.6421   60.2529 C.3     1  ZINC000971513996   -0.1600
      2 C2         -8.5973    1.0989   60.5895 C.3     1  ZINC000971513996   -0.1400
      3 C3         -9.2994    1.5642   59.3122 C.3     1  ZINC000971513996    0.0800
      4 H4        -10.3219    1.8602   59.5470 H       1  ZINC000971513996    0.0800
      5 O5         -8.5955    2.6788   58.7607 O.3     1  ZINC000971513996   -0.3600
      6 C6         -8.7399    3.8864   59.5110 C.3     1  ZINC000971513996    0.0200
      7 C7         -9.3198    0.4378   58.3114 C.2     1  ZINC000971513996    0.5400
      8 O8         -8.7030    0.5388   57.2721 O.2     1  ZINC000971513996   -0.5100
      9 N9        -10.0235   -0.6819   58.5712 N.am    1  ZINC000971513996   -0.6400
     10 C10       -10.8713   -1.1817   59.6671 C.3     1  ZINC000971513996    0.1000
     11 C11       -11.6319   -2.0105   58.6142 C.3     1  ZINC000971513996   -0.1200
     12 H12       -11.9338   -3.0058   58.9405 H       1  ZINC000971513996    0.1100
     13 C13       -12.7620   -1.1996   57.9752 C.3     1  ZINC000971513996   -0.1200
     14 C14       -12.8541   -1.5494   56.4870 C.3     1  ZINC000971513996    0.1100
     15 N15       -11.5612   -1.2524   55.8648 N.am    1  ZINC000971513996   -0.6000
     16 C16       -11.5025   -0.4094   54.8148 C.2     1  ZINC000971513996    0.5900
     17 O17       -12.5203    0.1016   54.3875 O.2     1  ZINC000971513996   -0.5200
     18 C18       -10.2079   -0.1071   54.1860 C.2     1  ZINC000971513996    0.0200
     19 C19        -9.6739    1.1336   54.0399 C.2     1  ZINC000971513996   -0.1000
     20 C20        -8.4243    0.9913   53.3893 C.ar    1  ZINC000971513996   -0.1100
     21 C21        -7.4424    1.9032   52.9820 C.ar    1  ZINC000971513996   -0.0600
     22 C22        -6.3134    1.4530   52.3615 C.ar    1  ZINC000971513996   -0.1200
     23 C23        -5.2589    2.4370   51.9244 C.3     1  ZINC000971513996   -0.1100
     24 C24        -6.1267    0.0964   52.1295 C.ar    1  ZINC000971513996   -0.0800
     25 C25        -7.0775   -0.8200   52.5206 C.ar    1  ZINC000971513996   -0.1300
     26 C26        -8.2377   -0.3854   53.1548 C.ar    1  ZINC000971513996    0.1100
     27 N27        -9.3384   -1.0401   53.6550 N.pl3   1  ZINC000971513996   -0.5800
     28 C28       -10.3385   -1.8608   56.3723 C.3     1  ZINC000971513996    0.0700
     29 C29       -10.2960   -1.9489   57.8887 C.3     1  ZINC000971513996    0.1300
     30 H30        -9.6162   -2.7339   58.2198 H       1  ZINC000971513996    0.1100
     31 H31        -6.6418    0.4094   61.1739 H       1  ZINC000971513996    0.0600
     32 H32        -7.2199   -0.2467   59.6236 H       1  ZINC000971513996    0.0600
     33 H33        -6.6550    1.4384   59.7216 H       1  ZINC000971513996    0.0600
     34 H34        -9.1517    0.2686   61.0271 H       1  ZINC000971513996    0.0800
     35 H35        -8.5550    1.9230   61.3017 H       1  ZINC000971513996    0.0800
     36 H36        -9.7786    4.2150   59.4743 H       1  ZINC000971513996    0.0400
     37 H37        -8.4519    3.7072   60.5469 H       1  ZINC000971513996    0.0500
     38 H38        -8.0994    4.6581   59.0841 H       1  ZINC000971513996    0.0900
     39 H39       -10.3311   -1.7901   60.3925 H       1  ZINC000971513996    0.0900
     40 H40       -11.4800   -0.4075   60.1342 H       1  ZINC000971513996    0.0800
     41 H41       -13.7053   -1.4409   58.4651 H       1  ZINC000971513996    0.0900
     42 H42       -12.5545   -0.1353   58.0868 H       1  ZINC000971513996    0.0700
     43 H43       -13.0826   -2.6090   56.3720 H       1  ZINC000971513996    0.0800
     44 H44       -13.6346   -0.9514   56.0166 H       1  ZINC000971513996    0.1000
     45 H45       -10.1221    2.0619   54.3621 H       1  ZINC000971513996    0.1500
     46 H46        -7.5786    2.9600   53.1580 H       1  ZINC000971513996    0.1200
     47 H47        -4.5403    2.5817   52.7312 H       1  ZINC000971513996    0.0700
     48 H48        -4.7443    2.0511   51.0444 H       1  ZINC000971513996    0.0600
     49 H49        -5.7293    3.3898   51.6816 H       1  ZINC000971513996    0.0600
     50 H50        -5.2275   -0.2433   51.6373 H       1  ZINC000971513996    0.1300
     51 H51        -6.9234   -1.8728   52.3354 H       1  ZINC000971513996    0.1200
     52 H52        -9.4813   -1.9994   53.6372 H       1  ZINC000971513996    0.4200
     53 H53       -10.2563   -2.8711   55.9713 H       1  ZINC000971513996    0.0800
     54 H54        -9.4857   -1.2774   56.0252 H       1  ZINC000971513996    0.1200
@<TRIPOS>BOND
     1     1     2    1
     2     1    31    1
     3     1    32    1
     4     1    33    1
     5     2     3    1
     6     2    34    1
     7     2    35    1
     8     3     4    1
     9     3     5    1
    10     3     7    1
    11     5     6    1
    12     6    36    1
    13     6    37    1
    14     6    38    1
    15     7     8    2
    16     7     9   am
    17     9    29    1
    18     9    10    1
    19    10    11    1
    20    10    39    1
    21    10    40    1
    22    11    12    1
    23    11    29    1
    24    11    13    1
    25    13    14    1
    26    13    41    1
    27    13    42    1
    28    14    15    1
    29    14    43    1
    30    14    44    1
    31    15    16   am
    32    15    28    1
    33    16    17    2
    34    16    18    1
    35    18    27    1
    36    18    19    2
    37    19    20    1
    38    19    45    1
    39    20    26   ar
    40    20    21   ar
    41    21    22   ar
    42    21    46    1
    43    22    23    1
    44    22    24   ar
    45    23    47    1
    46    23    48    1
    47    23    49    1
    48    24    25   ar
    49    24    50    1
    50    25    26   ar
    51    25    51    1
    52    26    27    1
    53    27    52    1
    54    28    29    1
    55    28    53    1
    56    28    54    1
    57    29    30    1
@<TRIPOS>SUBSTRUCTURE
     1 ZINC000971513996        1 TEMP              0 ****  ****    0 ROOT


##########                                Name:    ZINC000001174632
##########                DOCK_Rotatable_Bonds:                   6
##########                         Heavy_Atoms:                  29
##########                    Molecular_Weight:             385.419
##########                DOCK_Rotatable_Bonds:                   6
##########                       Formal_Charge:           0.0400005
##########                     HBond_Acceptors:                   5
##########                        HBond_Donors:                   1
##########                         Heavy_Atoms:                  29
##########                          Grid_Score:          -26.947670
##########                     Grid_vdw_energy:          -25.141863
##########                      Grid_es_energy:           -1.805806
##########           Internal_energy_repulsive:            8.811515

@<TRIPOS>MOLECULE
ZINC000001174632
 48 51 1 0 0
SMALL
USER_CHARGES


@<TRIPOS>ATOM
      1 C1         -7.3448    4.4333   58.9832 C.3     1  ZINC000001174632    0.0400
      2 O2         -8.7718    4.2055   58.8436 O.3     1  ZINC000001174632   -0.3500
      3 C3         -9.3001    3.1842   59.5465 C.2     1  ZINC000001174632    0.5200
      4 O4        -10.3745    3.3180   60.0983 O.2     1  ZINC000001174632   -0.5200
      5 C5         -8.5748    1.9054   59.6460 C.ar    1  ZINC000001174632   -0.2000
      6 C6         -7.6288    1.7104   60.6552 C.ar    1  ZINC000001174632   -0.0200
      7 C7         -6.9543    0.5116   60.7430 C.ar    1  ZINC000001174632   -0.1800
      8 C8         -7.2089   -0.5035   59.8349 C.ar    1  ZINC000001174632   -0.0300
      9 C9         -8.1403   -0.3267   58.8318 C.ar    1  ZINC000001174632   -0.1900
     10 C10        -8.8347    0.8723   58.7302 C.ar    1  ZINC000001174632    0.2600
     11 N11        -9.7725    1.0528   57.7221 N.pl3   1  ZINC000001174632   -0.6500
     12 C12        -9.5120    0.6001   56.4544 C.2     1  ZINC000001174632    0.2300
     13 C13       -10.1460   -0.4614   55.8375 C.2     1  ZINC000001174632   -0.1800
     14 C14       -11.2143   -1.2959   56.4307 C.ar    1  ZINC000001174632   -0.0600
     15 C15       -10.9587   -2.6269   56.7639 C.ar    1  ZINC000001174632   -0.0600
     16 C16       -11.9571   -3.4014   57.3166 C.ar    1  ZINC000001174632   -0.1500
     17 C17       -13.2149   -2.8590   57.5412 C.ar    1  ZINC000001174632    0.1400
     18 O18       -14.1964   -3.6258   58.0861 O.3     1  ZINC000001174632   -0.3200
     19 C19       -15.4917   -3.5428   57.4883 C.3     1  ZINC000001174632    0.0300
     20 C20       -13.4732   -1.5355   57.2112 C.ar    1  ZINC000001174632   -0.2100
     21 C21       -12.4786   -0.7526   56.6639 C.ar    1  ZINC000001174632   -0.0500
     22 C22        -9.5788   -0.6193   54.4923 C.2     1  ZINC000001174632    0.4500
     23 O23        -9.8969   -1.4527   53.6667 O.2     1  ZINC000001174632   -0.4100
     24 C24        -8.5402    0.4354   54.3312 C.ar    1  ZINC000001174632   -0.1600
     25 C25        -7.6920    0.7659   53.2912 C.ar    1  ZINC000001174632   -0.0500
     26 C26        -6.8046    1.8284   53.4310 C.ar    1  ZINC000001174632   -0.1100
     27 C27        -6.7681    2.5523   54.6031 C.ar    1  ZINC000001174632   -0.0900
     28 C28        -7.6165    2.2290   55.6555 C.ar    1  ZINC000001174632   -0.0800
     29 C29        -8.5101    1.1759   55.5261 C.ar    1  ZINC000001174632   -0.0600
     30 H30        -6.8017    3.5446   58.6615 H       1  ZINC000001174632    0.0700
     31 H31        -7.0501    5.2822   58.3661 H       1  ZINC000001174632    0.1100
     32 H32        -7.1108    4.6442   60.0267 H       1  ZINC000001174632    0.0700
     33 H33        -7.4259    2.4981   61.3655 H       1  ZINC000001174632    0.1400
     34 H34        -6.2228    0.3629   61.5237 H       1  ZINC000001174632    0.1300
     35 H35        -6.6750   -1.4390   59.9124 H       1  ZINC000001174632    0.1300
     36 H36        -8.3324   -1.1226   58.1275 H       1  ZINC000001174632    0.1300
     37 H37       -10.6120    1.4989   57.9148 H       1  ZINC000001174632    0.4300
     38 H38        -9.9804   -3.0498   56.5889 H       1  ZINC000001174632    0.1300
     39 H39       -11.7601   -4.4313   57.5747 H       1  ZINC000001174632    0.1300
     40 H40       -15.8545   -2.5167   57.5481 H       1  ZINC000001174632    0.0600
     41 H41       -15.4295   -3.8459   56.4431 H       1  ZINC000001174632    0.0600
     42 H42       -16.1791   -4.2026   58.0177 H       1  ZINC000001174632    0.1000
     43 H43       -14.4533   -1.1174   57.3872 H       1  ZINC000001174632    0.1300
     44 H44       -12.6802    0.2770   56.4078 H       1  ZINC000001174632    0.1300
     45 H45        -7.7176    0.2001   52.3716 H       1  ZINC000001174632    0.1400
     46 H46        -6.1417    2.0866   52.6183 H       1  ZINC000001174632    0.1400
     47 H47        -6.0762    3.3752   54.7046 H       1  ZINC000001174632    0.1400
     48 H48        -7.5832    2.8000   56.5715 H       1  ZINC000001174632    0.1300
@<TRIPOS>BOND
     1     1     2    1
     2     1    30    1
     3     1    31    1
     4     1    32    1
     5     2     3    1
     6     3     4    2
     7     3     5    1
     8     5    10   ar
     9     5     6   ar
    10     6     7   ar
    11     6    33    1
    12     7     8   ar
    13     7    34    1
    14     8     9   ar
    15     8    35    1
    16     9    10   ar
    17     9    36    1
    18    10    11    1
    19    11    12    1
    20    11    37    1
    21    12    29    1
    22    12    13    2
    23    13    14    1
    24    13    22    1
    25    14    21   ar
    26    14    15   ar
    27    15    16   ar
    28    15    38    1
    29    16    17   ar
    30    16    39    1
    31    17    18    1
    32    17    20   ar
    33    18    19    1
    34    19    40    1
    35    19    41    1
    36    19    42    1
    37    20    21   ar
    38    20    43    1
    39    21    44    1
    40    22    23    2
    41    22    24    1
    42    24    29   ar
    43    24    25   ar
    44    25    26   ar
    45    25    45    1
    46    26    27   ar
    47    26    46    1
    48    27    28   ar
    49    27    47    1
    50    28    29   ar
    51    28    48    1
@<TRIPOS>SUBSTRUCTURE
     1 ZINC000001174632        1 TEMP              0 ****  ****    0 ROOT


##########                                Name:    ZINC000826324849
##########                DOCK_Rotatable_Bonds:                   4
##########                         Heavy_Atoms:                  27
##########                    Molecular_Weight:             395.374
##########                DOCK_Rotatable_Bonds:                   4
##########                       Formal_Charge:           0.0400001
##########                     HBond_Acceptors:                  13
##########                        HBond_Donors:                   1
##########                         Heavy_Atoms:                  27
##########                          Grid_Score:          -26.942856
##########                     Grid_vdw_energy:          -27.127806
##########                      Grid_es_energy:            0.184949
##########           Internal_energy_repulsive:          133.595062

@<TRIPOS>MOLECULE
ZINC000826324849
 41 44 1 0 0
SMALL
USER_CHARGES


@<TRIPOS>ATOM
      1 C1         -6.4368    1.6074   57.8042 C.3     1  ZINC000826324849   -0.0600
      2 C2         -5.4402    2.7373   57.7676 C.2     1  ZINC000826324849    0.2000
      3 N3         -4.2372    2.7010   57.2471 N.2     1  ZINC000826324849   -0.4600
      4 C4         -3.7197    3.9265   57.4453 C.2     1  ZINC000826324849    0.1600
      5 C5         -2.3503    4.3950   57.0258 C.3     1  ZINC000826324849    0.2200
      6 H6         -2.0269    5.2102   57.6731 H       1  ZINC000826324849    0.1300
      7 C7         -1.3550    3.2331   57.1225 C.3     1  ZINC000826324849    0.0600
      8 O8         -0.1077    3.6328   56.5496 O.3     1  ZINC000826324849   -0.3600
      9 C9         -0.1781    3.9507   55.1576 C.3     1  ZINC000826324849    0.0400
     10 C10        -1.1130    5.1493   54.9603 C.3     1  ZINC000826324849    0.0800
     11 N11        -2.3909    4.8573   55.6294 N.am    1  ZINC000826324849   -1.0100
     12 S12        -3.8315    5.0419   54.8338 S.o2    1  ZINC000826324849    2.7100
     13 O13        -4.8368    4.5372   55.7020 O.2     1  ZINC000826324849   -0.9300
     14 O14        -3.8403    6.3676   54.3223 O.2     1  ZINC000826324849   -0.9300
     15 C15        -3.7967    3.9695   53.4362 C.ar    1  ZINC000826324849   -0.5800
     16 C16        -2.5942    3.4717   52.9770 C.ar    1  ZINC000826324849   -0.0400
     17 C17        -2.5639    2.6296   51.8798 C.ar    1  ZINC000826324849   -0.0800
     18 C18        -3.7367    2.2814   51.2360 C.ar    1  ZINC000826324849   -0.1100
     19 C19        -4.9477    2.7741   51.6869 C.ar    1  ZINC000826324849    0.1300
     20 F20        -6.0939    2.4335   51.0580 F       1  ZINC000826324849   -0.1100
     21 C21        -4.9833    3.6186   52.7967 C.ar    1  ZINC000826324849    0.0500
     22 C22        -6.2795    4.1508   53.2867 C.2     1  ZINC000826324849    0.1800
     23 N23        -6.7052    5.3949   53.1944 N.2     1  ZINC000826324849   -0.2600
     24 N24        -7.8736    5.4530   53.7351 N.pl3   1  ZINC000826324849   -0.2200
     25 N25        -8.2015    4.2854   54.1668 N.2     1  ZINC000826324849   -0.0200
     26 N26        -7.2473    3.4584   53.9039 N.2     1  ZINC000826324849   -0.2600
     27 N27        -4.6178    4.6325   58.0648 N.2     1  ZINC000826324849   -0.3800
     28 O28        -5.6158    3.9696   58.2542 O.3     1  ZINC000826324849    0.0900
     29 H29        -7.3488    1.9432   58.2977 H       1  ZINC000826324849    0.1000
     30 H30        -6.6687    1.2944   56.7862 H       1  ZINC000826324849    0.1100
     31 H31        -6.0137    0.7675   58.3551 H       1  ZINC000826324849    0.1100
     32 H32        -1.2064    2.9672   58.1691 H       1  ZINC000826324849    0.1200
     33 H33        -1.7459    2.3726   56.5795 H       1  ZINC000826324849    0.0600
     34 H34         0.8173    4.2010   54.7905 H       1  ZINC000826324849    0.1200
     35 H35        -0.5648    3.0928   54.6074 H       1  ZINC000826324849    0.0600
     36 H36        -0.6648    6.0407   55.3991 H       1  ZINC000826324849    0.0900
     37 H37        -1.2844    5.3099   53.8959 H       1  ZINC000826324849    0.1100
     38 H38        -1.6744    3.7405   53.4752 H       1  ZINC000826324849    0.1400
     39 H39        -1.6202    2.2427   51.5245 H       1  ZINC000826324849    0.1500
     40 H40        -3.7072    1.6243   50.3794 H       1  ZINC000826324849    0.1500
     41 H41        -8.4200    6.2513   53.8061 H       1  ZINC000826324849    0.4800
@<TRIPOS>BOND
     1     1     2    1
     2     1    29    1
     3     1    30    1
     4     1    31    1
     5     2    28    1
     6     2     3    2
     7     3     4    1
     8     4     5    1
     9     4    27    2
    10     5     6    1
    11     5    11    1
    12     5     7    1
    13     7     8    1
    14     7    32    1
    15     7    33    1
    16     8     9    1
    17     9    10    1
    18     9    34    1
    19     9    35    1
    20    10    11    1
    21    10    36    1
    22    10    37    1
    23    11    12   am
    24    12    13    2
    25    12    14    2
    26    12    15    1
    27    15    21   ar
    28    15    16   ar
    29    16    17   ar
    30    16    38    1
    31    17    18   ar
    32    17    39    1
    33    18    19   ar
    34    18    40    1
    35    19    20    1
    36    19    21   ar
    37    21    22    1
    38    22    26    1
    39    22    23    2
    40    23    24    1
    41    24    25    1
    42    24    41    1
    43    25    26    2
    44    27    28    1
@<TRIPOS>SUBSTRUCTURE
     1 ZINC000826324849        1 TEMP              0 ****  ****    0 ROOT


##########                                Name:    ZINC001077846158
##########                DOCK_Rotatable_Bonds:                   7
##########                         Heavy_Atoms:                  24
##########                    Molecular_Weight:             350.442
##########                DOCK_Rotatable_Bonds:                   7
##########                       Formal_Charge:          -0.0600002
##########                     HBond_Acceptors:                   8
##########                        HBond_Donors:                   2
##########                         Heavy_Atoms:                  24
##########                          Grid_Score:          -26.935980
##########                     Grid_vdw_energy:          -25.258980
##########                      Grid_es_energy:           -1.677000
##########           Internal_energy_repulsive:           16.682978

@<TRIPOS>MOLECULE
ZINC001077846158
 46 48 1 0 0
SMALL
USER_CHARGES


@<TRIPOS>ATOM
      1 C1        -16.5879   -1.9786   56.5015 C.3     1  ZINC001077846158   -0.0700
      2 C2        -15.8752   -1.4229   57.7076 C.2     1  ZINC001077846158    0.0100
      3 C3        -14.6721   -1.8077   58.1645 C.2     1  ZINC001077846158   -0.0500
      4 C4        -13.7864   -2.8714   57.5684 C.3     1  ZINC001077846158    0.1300
      5 N5        -12.3851   -2.5871   57.9053 N.3     1  ZINC001077846158   -0.5100
      6 C6        -11.4830   -3.6306   57.3544 C.3     1  ZINC001077846158    0.0000
      7 C7        -10.1018   -2.9286   57.3308 C.3     1  ZINC001077846158    0.1000
      8 H8         -9.6397   -2.9534   58.3176 H       1  ZINC001077846158    0.0800
      9 O9         -9.2453   -3.5304   56.3581 O.3     1  ZINC001077846158   -0.5600
     10 C10       -10.4578   -1.4787   56.9296 C.3     1  ZINC001077846158    0.1400
     11 H11       -10.3176   -1.3374   55.8580 H       1  ZINC001077846158    0.1100
     12 N12        -9.6341   -0.5269   57.6793 N.am    1  ZINC001077846158   -0.7000
     13 C13        -9.6696   -0.5201   59.0266 C.2     1  ZINC001077846158    0.6000
     14 O14       -10.3864   -1.3033   59.6200 O.2     1  ZINC001077846158   -0.5300
     15 C15        -8.8403    0.4354   59.7802 C.2     1  ZINC001077846158    0.0100
     16 C16        -8.1141    1.4106   59.1891 C.2     1  ZINC001077846158   -0.2300
     17 S17        -7.2978    2.3009   60.3987 S.3     1  ZINC001077846158    0.2300
     18 C18        -7.9728    1.3204   61.6233 C.2     1  ZINC001077846158    0.0300
     19 C19        -7.7113    1.4873   63.0980 C.3     1  ZINC001077846158   -0.0200
     20 C20        -6.5237    0.6139   63.5075 C.3     1  ZINC001077846158   -0.1500
     21 C21        -7.3931    2.9537   63.3968 C.3     1  ZINC001077846158   -0.1500
     22 N22        -8.7398    0.4230   61.1121 N.2     1  ZINC001077846158   -0.4500
     23 C23       -11.9429   -1.3117   57.3009 C.3     1  ZINC001077846158    0.0300
     24 O24       -14.4059   -1.0636   59.2558 O.3     1  ZINC001077846158   -0.2100
     25 C25       -15.4432   -0.2385   59.4507 C.2     1  ZINC001077846158    0.1800
     26 N26       -16.3266   -0.4485   58.5169 N.2     1  ZINC001077846158   -0.4900
     27 H27       -16.3043   -1.4080   55.6171 H       1  ZINC001077846158    0.0800
     28 H28       -16.3095   -3.0235   56.3643 H       1  ZINC001077846158    0.0700
     29 H29       -17.6652   -1.9062   56.6507 H       1  ZINC001077846158    0.0700
     30 H30       -14.0665   -3.8449   57.9707 H       1  ZINC001077846158    0.0600
     31 H31       -13.9054   -2.8781   56.4850 H       1  ZINC001077846158    0.1100
     32 H32       -11.4600   -4.5030   58.0072 H       1  ZINC001077846158    0.0900
     33 H33       -11.7893   -3.9108   56.3466 H       1  ZINC001077846158    0.0600
     34 H34        -8.7794   -4.3157   56.6765 H       1  ZINC001077846158    0.3900
     35 H35        -9.0633    0.0984   57.2060 H       1  ZINC001077846158    0.4100
     36 H36        -8.0587    1.5967   58.1267 H       1  ZINC001077846158    0.1900
     37 H37        -8.5952    1.1855   63.6601 H       1  ZINC001077846158    0.1000
     38 H38        -6.7505   -0.4308   63.2947 H       1  ZINC001077846158    0.0600
     39 H39        -5.6399    0.9157   62.9454 H       1  ZINC001077846158    0.0600
     40 H40        -6.3347    0.7347   64.5742 H       1  ZINC001077846158    0.0700
     41 H41        -8.2391    3.5759   63.1051 H       1  ZINC001077846158    0.0600
     42 H42        -7.2039    3.0744   64.4635 H       1  ZINC001077846158    0.0700
     43 H43        -6.5093    3.2555   62.8347 H       1  ZINC001077846158    0.0600
     44 H44       -12.5283   -1.1024   56.4056 H       1  ZINC001077846158    0.0600
     45 H45       -12.0569   -0.5007   58.0203 H       1  ZINC001077846158    0.0900
     46 H46       -15.5306    0.4846   60.2481 H       1  ZINC001077846158    0.2500
@<TRIPOS>BOND
     1     1     2    1
     2     1    27    1
     3     1    28    1
     4     1    29    1
     5     2    26    1
     6     2     3    2
     7     3     4    1
     8     3    24    1
     9     4     5    1
    10     4    30    1
    11     4    31    1
    12     5    23    1
    13     5     6    1
    14     6     7    1
    15     6    32    1
    16     6    33    1
    17     7     8    1
    18     7     9    1
    19     7    10    1
    20     9    34    1
    21    10    11    1
    22    10    12    1
    23    10    23    1
    24    12    13   am
    25    12    35    1
    26    13    14    2
    27    13    15    1
    28    15    22    1
    29    15    16    2
    30    16    17    1
    31    16    36    1
    32    17    18    1
    33    18    19    1
    34    18    22    2
    35    19    20    1
    36    19    21    1
    37    19    37    1
    38    20    38    1
    39    20    39    1
    40    20    40    1
    41    21    41    1
    42    21    42    1
    43    21    43    1
    44    23    44    1
    45    23    45    1
    46    24    25    1
    47    25    26    2
    48    25    46    1
@<TRIPOS>SUBSTRUCTURE
     1 ZINC001077846158        1 TEMP              0 ****  ****    0 ROOT


##########                                Name:    ZINC000840464592
##########                DOCK_Rotatable_Bonds:                  10
##########                         Heavy_Atoms:                  26
##########                    Molecular_Weight:             360.497
##########                DOCK_Rotatable_Bonds:                  10
##########                       Formal_Charge:          -0.0399996
##########                     HBond_Acceptors:                   5
##########                        HBond_Donors:                   1
##########                         Heavy_Atoms:                  26
##########                          Grid_Score:          -26.922842
##########                     Grid_vdw_energy:          -26.292681
##########                      Grid_es_energy:           -0.630162
##########           Internal_energy_repulsive:           79.997437

@<TRIPOS>MOLECULE
ZINC000840464592
 58 59 1 0 0
SMALL
USER_CHARGES


@<TRIPOS>ATOM
      1 C1         -6.6128    1.8092   58.0007 C.3     1  ZINC000840464592   -0.1500
      2 C2         -7.8947    1.1635   58.5307 C.3     1  ZINC000840464592   -0.1300
      3 C3         -7.9626    1.3364   60.0493 C.3     1  ZINC000840464592   -0.1200
      4 C4         -9.4147    1.2049   60.5131 C.3     1  ZINC000840464592   -0.1200
      5 C5         -9.8893   -0.2342   60.3017 C.3     1  ZINC000840464592   -0.1200
      6 C6        -11.3027   -0.3932   60.8656 C.3     1  ZINC000840464592    0.0600
      7 O7        -12.2246    0.3358   60.0528 O.3     1  ZINC000840464592   -0.3600
      8 C8        -13.5970    0.0729   60.3518 C.3     1  ZINC000840464592    0.0800
      9 H9        -13.7375   -0.9975   60.5028 H       1  ZINC000840464592    0.0800
     10 C10       -13.9948    0.8239   61.6241 C.3     1  ZINC000840464592   -0.1800
     11 C11       -14.4586    0.5357   59.2053 C.2     1  ZINC000840464592    0.5200
     12 O12       -14.8836    1.6714   59.1860 O.2     1  ZINC000840464592   -0.5000
     13 N13       -14.7569   -0.3125   58.2013 N.am    1  ZINC000840464592   -0.6000
     14 C14       -15.5923    0.1406   57.0920 C.3     1  ZINC000840464592    0.0900
     15 C15       -16.8971   -0.6444   57.0180 C.3     1  ZINC000840464592   -0.1600
     16 C16       -16.6089   -2.1232   56.7500 C.3     1  ZINC000840464592    0.0800
     17 N17       -16.4236   -2.8151   58.0303 N.am    1  ZINC000840464592   -0.7200
     18 C18       -15.3210   -2.5991   58.7650 C.2     1  ZINC000840464592    0.5100
     19 O19       -15.1917   -3.1312   59.8473 O.2     1  ZINC000840464592   -0.5200
     20 C20       -14.2357   -1.6833   58.2256 C.3     1  ZINC000840464592    0.1400
     21 H21       -13.3608   -1.7318   58.8737 H       1  ZINC000840464592    0.1300
     22 C22       -13.8513   -2.1209   56.8108 C.3     1  ZINC000840464592   -0.1000
     23 C23       -12.3536   -2.2589   56.7172 C.ar    1  ZINC000840464592   -0.0900
     24 C24       -11.7382   -3.4198   57.1466 C.ar    1  ZINC000840464592   -0.1100
     25 C25       -10.3644   -3.5464   57.0608 C.ar    1  ZINC000840464592   -0.1200
     26 C26        -9.6060   -2.5122   56.5450 C.ar    1  ZINC000840464592   -0.1200
     27 C27       -10.2214   -1.3516   56.1147 C.ar    1  ZINC000840464592   -0.1200
     28 C28       -11.5956   -1.2267   56.1967 C.ar    1  ZINC000840464592   -0.1100
     29 H29        -5.7481    1.3303   58.4599 H       1  ZINC000840464592    0.0500
     30 H30        -6.5644    1.6859   56.9187 H       1  ZINC000840464592    0.0500
     31 H31        -6.6129    2.8712   58.2458 H       1  ZINC000840464592    0.0500
     32 H32        -8.7594    1.6424   58.0713 H       1  ZINC000840464592    0.0600
     33 H33        -7.8947    0.1014   58.2856 H       1  ZINC000840464592    0.0600
     34 H34        -7.3568    0.5683   60.5300 H       1  ZINC000840464592    0.0600
     35 H35        -7.5826    2.3214   60.3202 H       1  ZINC000840464592    0.0600
     36 H36        -9.4825    1.4580   61.5711 H       1  ZINC000840464592    0.0600
     37 H37       -10.0433    1.8832   59.9362 H       1  ZINC000840464592    0.0600
     38 H38        -9.8958   -0.4618   59.2357 H       1  ZINC000840464592    0.0700
     39 H39        -9.2142   -0.9186   60.8153 H       1  ZINC000840464592    0.0700
     40 H40       -11.5762   -1.4482   60.8683 H       1  ZINC000840464592    0.0500
     41 H41       -11.3329   -0.0073   61.8846 H       1  ZINC000840464592    0.0500
     42 H42       -15.0587    0.6811   61.8127 H       1  ZINC000840464592    0.0800
     43 H43       -13.4213    0.4391   62.4674 H       1  ZINC000840464592    0.0700
     44 H44       -13.7875    1.8866   61.4985 H       1  ZINC000840464592    0.0800
     45 H45       -15.8200    1.1980   57.2264 H       1  ZINC000840464592    0.1000
     46 H46       -15.0454    0.0111   56.1581 H       1  ZINC000840464592    0.0800
     47 H47       -17.4320   -0.5460   57.9627 H       1  ZINC000840464592    0.0800
     48 H48       -17.5138   -0.2449   56.2129 H       1  ZINC000840464592    0.1000
     49 H49       -17.4480   -2.5669   56.2141 H       1  ZINC000840464592    0.0900
     50 H50       -15.7027   -2.2153   56.1514 H       1  ZINC000840464592    0.1000
     51 H51       -17.1016   -3.4318   58.3479 H       1  ZINC000840464592    0.4000
     52 H52       -14.3192   -3.0797   56.5873 H       1  ZINC000840464592    0.0900
     53 H53       -14.1930   -1.3742   56.0940 H       1  ZINC000840464592    0.1000
     54 H54       -12.3308   -4.2279   57.5497 H       1  ZINC000840464592    0.1200
     55 H55        -9.8836   -4.4532   57.3970 H       1  ZINC000840464592    0.1200
     56 H56        -8.5325   -2.6108   56.4785 H       1  ZINC000840464592    0.1200
     57 H57        -9.6287   -0.5434   55.7121 H       1  ZINC000840464592    0.1200
     58 H58       -12.0764   -0.3200   55.8605 H       1  ZINC000840464592    0.1200
@<TRIPOS>BOND
     1     1     2    1
     2     1    29    1
     3     1    30    1
     4     1    31    1
     5     2     3    1
     6     2    32    1
     7     2    33    1
     8     3     4    1
     9     3    34    1
    10     3    35    1
    11     4     5    1
    12     4    36    1
    13     4    37    1
    14     5     6    1
    15     5    38    1
    16     5    39    1
    17     6     7    1
    18     6    40    1
    19     6    41    1
    20     7     8    1
    21     8     9    1
    22     8    10    1
    23     8    11    1
    24    10    42    1
    25    10    43    1
    26    10    44    1
    27    11    12    2
    28    11    13   am
    29    13    20    1
    30    13    14    1
    31    14    15    1
    32    14    45    1
    33    14    46    1
    34    15    16    1
    35    15    47    1
    36    15    48    1
    37    16    17    1
    38    16    49    1
    39    16    50    1
    40    17    18   am
    41    17    51    1
    42    18    19    2
    43    18    20    1
    44    20    21    1
    45    20    22    1
    46    22    23    1
    47    22    52    1
    48    22    53    1
    49    23    28   ar
    50    23    24   ar
    51    24    25   ar
    52    24    54    1
    53    25    26   ar
    54    25    55    1
    55    26    27   ar
    56    26    56    1
    57    27    28   ar
    58    27    57    1
    59    28    58    1
@<TRIPOS>SUBSTRUCTURE
     1 ZINC000840464592        1 TEMP              0 ****  ****    0 ROOT


##########                                Name:    ZINC000542980334
##########                DOCK_Rotatable_Bonds:                   6
##########                         Heavy_Atoms:                  27
##########                    Molecular_Weight:             404.795
##########                DOCK_Rotatable_Bonds:                   6
##########                       Formal_Charge:           0.0300001
##########                     HBond_Acceptors:                  10
##########                        HBond_Donors:                   1
##########                         Heavy_Atoms:                  27
##########                          Grid_Score:          -26.907562
##########                     Grid_vdw_energy:          -26.311743
##########                      Grid_es_energy:           -0.595820
##########           Internal_energy_repulsive:           11.271280

@<TRIPOS>MOLECULE
ZINC000542980334
 44 46 1 0 0
SMALL
USER_CHARGES


@<TRIPOS>ATOM
      1 O1        -10.9823   -2.0215   54.6314 O.2     1  ZINC000542980334   -0.5800
      2 C2        -10.2345   -1.4981   55.4346 C.2     1  ZINC000542980334    0.7100
      3 N3         -9.3026   -0.6198   55.0146 N.am    1  ZINC000542980334   -0.7400
      4 C4         -9.1865   -0.3002   53.5896 C.3     1  ZINC000542980334    0.1800
      5 C5         -8.1807    0.8065   53.4032 C.ar    1  ZINC000542980334   -0.1400
      6 C6         -6.9344    0.5268   52.8700 C.ar    1  ZINC000542980334    0.1300
      7 F7         -6.6188   -0.7384   52.5165 F       1  ZINC000542980334   -0.1200
      8 C8         -6.0112    1.5448   52.6987 C.ar    1  ZINC000542980334   -0.1500
      9 C9         -6.3345    2.8389   53.0599 C.ar    1  ZINC000542980334   -0.0700
     10 C10        -7.5793    3.1181   53.5924 C.ar    1  ZINC000542980334   -0.1200
     11 C11        -8.5047    2.1033   53.7594 C.ar    1  ZINC000542980334    0.0100
     12 Cl12      -10.0678    2.4552   54.4276 Cl      1  ZINC000542980334   -0.0400
     13 N13       -10.3413   -1.7920   56.7456 N.am    1  ZINC000542980334   -0.6300
     14 C14       -11.3523   -2.7474   57.2186 C.3     1  ZINC000542980334    0.1100
     15 C15       -12.1827   -2.0815   58.3202 C.3     1  ZINC000542980334   -0.1300
     16 C16       -11.2478   -1.5623   59.4149 C.3     1  ZINC000542980334   -0.1300
     17 C17       -10.3003   -0.5155   58.8247 C.3     1  ZINC000542980334    0.1400
     18 H18       -10.8815    0.3020   58.3980 H       1  ZINC000542980334    0.1100
     19 N19        -9.4273    0.0043   59.8802 N.pl3   1  ZINC000542980334   -0.3400
     20 C20        -8.2768    0.6850   59.6954 C.2     1  ZINC000542980334    0.0600
     21 C21        -7.7749    0.9856   60.9156 C.2     1  ZINC000542980334   -0.2300
     22 C22        -8.6485    0.4710   61.8790 C.2     1  ZINC000542980334   -0.0200
     23 C23        -8.4779    0.5761   63.3726 C.3     1  ZINC000542980334    0.5600
     24 F24        -9.0527    1.7688   63.8247 F       1  ZINC000542980334   -0.1700
     25 F25        -9.1078   -0.5091   63.9915 F       1  ZINC000542980334   -0.1700
     26 F26        -7.1151    0.5662   63.6882 F       1  ZINC000542980334   -0.1600
     27 N27        -9.6425   -0.1122   61.2595 N.2     1  ZINC000542980334   -0.2300
     28 C28        -9.4448   -1.1679   57.7281 C.3     1  ZINC000542980334    0.1300
     29 H29        -8.7085   -0.1992   55.6559 H       1  ZINC000542980334    0.4000
     30 H30        -8.8582   -1.1851   53.0444 H       1  ZINC000542980334    0.0900
     31 H31       -10.1559    0.0219   53.2093 H       1  ZINC000542980334    0.0900
     32 H32        -5.0384    1.3273   52.2831 H       1  ZINC000542980334    0.1500
     33 H33        -5.6142    3.6323   52.9265 H       1  ZINC000542980334    0.1500
     34 H34        -7.8310    4.1297   53.8748 H       1  ZINC000542980334    0.1500
     35 H35       -12.0029   -3.0306   56.3911 H       1  ZINC000542980334    0.0800
     36 H36       -10.8591   -3.6337   57.6180 H       1  ZINC000542980334    0.0800
     37 H37       -12.7463   -1.2493   57.8982 H       1  ZINC000542980334    0.0800
     38 H38       -12.8727   -2.8099   58.7462 H       1  ZINC000542980334    0.0900
     39 H39       -11.8379   -1.1098   60.2119 H       1  ZINC000542980334    0.0800
     40 H40       -10.6667   -2.3911   59.8193 H       1  ZINC000542980334    0.0800
     41 H41        -7.8356    0.9434   58.7441 H       1  ZINC000542980334    0.1900
     42 H42        -6.8609    1.5267   61.1109 H       1  ZINC000542980334    0.1600
     43 H43        -8.7968   -1.9240   58.1715 H       1  ZINC000542980334    0.0800
     44 H44        -8.8386   -0.4071   57.2364 H       1  ZINC000542980334    0.1100
@<TRIPOS>BOND
     1     1     2    2
     2     2     3   am
     3     2    13   am
     4     3     4    1
     5     3    29    1
     6     4     5    1
     7     4    30    1
     8     4    31    1
     9     5    11   ar
    10     5     6   ar
    11     6     7    1
    12     6     8   ar
    13     8     9   ar
    14     8    32    1
    15     9    10   ar
    16     9    33    1
    17    10    11   ar
    18    10    34    1
    19    11    12    1
    20    13    28    1
    21    13    14    1
    22    14    15    1
    23    14    35    1
    24    14    36    1
    25    15    16    1
    26    15    37    1
    27    15    38    1
    28    16    17    1
    29    16    39    1
    30    16    40    1
    31    17    18    1
    32    17    19    1
    33    17    28    1
    34    19    27    1
    35    19    20    1
    36    20    21    2
    37    20    41    1
    38    21    22    1
    39    21    42    1
    40    22    23    1
    41    22    27    2
    42    23    24    1
    43    23    25    1
    44    23    26    1
    45    28    43    1
    46    28    44    1
@<TRIPOS>SUBSTRUCTURE
     1 ZINC000542980334        1 TEMP              0 ****  ****    0 ROOT


##########                                Name:    ZINC000876376999
##########                DOCK_Rotatable_Bonds:                   7
##########                         Heavy_Atoms:                  24
##########                    Molecular_Weight:             358.502
##########                DOCK_Rotatable_Bonds:                   7
##########                       Formal_Charge:          -0.0299994
##########                     HBond_Acceptors:                   7
##########                        HBond_Donors:                   2
##########                         Heavy_Atoms:                  24
##########                          Grid_Score:          -26.905828
##########                     Grid_vdw_energy:          -25.991745
##########                      Grid_es_energy:           -0.914083
##########           Internal_energy_repulsive:           35.311611

@<TRIPOS>MOLECULE
ZINC000876376999
 54 56 1 0 0
SMALL
USER_CHARGES


@<TRIPOS>ATOM
      1 C1         -8.2846   -0.5831   66.5711 C.3     1  ZINC000876376999   -0.1500
      2 C2         -8.8573    0.8088   66.2962 C.3     1  ZINC000876376999   -0.1100
      3 C3         -8.5860    1.1936   64.8406 C.3     1  ZINC000876376999   -0.0700
      4 C4         -9.3856    2.4491   64.4867 C.3     1  ZINC000876376999    0.0900
      5 O5        -10.7774    2.2024   64.6965 O.3     1  ZINC000876376999   -0.5600
      6 C6         -7.0922    1.4695   64.6549 C.3     1  ZINC000876376999   -0.1100
      7 C7         -6.8246    1.8864   63.2070 C.3     1  ZINC000876376999   -0.1400
      8 C8         -7.2255    0.7438   62.2684 C.3     1  ZINC000876376999    0.1100
      9 N9         -8.6210    0.3746   62.5421 N.am    1  ZINC000876376999   -0.6300
     10 C10        -9.5300    0.3403   61.5476 C.2     1  ZINC000876376999    0.7100
     11 O11       -10.6818    0.0331   61.7869 O.2     1  ZINC000876376999   -0.5800
     12 N12        -9.1621    0.6463   60.2876 N.am    1  ZINC000876376999   -0.7500
     13 C13       -10.1500    0.6090   59.2065 C.3     1  ZINC000876376999    0.1400
     14 C14        -9.5475   -0.1001   57.9876 C.3     1  ZINC000876376999   -0.1100
     15 C15       -10.1449   -1.4719   57.8307 C.3     1  ZINC000876376999   -0.1100
     16 C16       -11.2694   -1.5999   56.7964 C.3     1  ZINC000876376999   -0.5200
     17 H17       -11.6967   -2.6104   56.7331 H       1  ZINC000876376999    0.1500
     18 C18       -12.3230   -0.5152   57.1170 C.3     1  ZINC000876376999   -0.1200
     19 C19       -11.9219    0.8340   56.5305 C.3     1  ZINC000876376999   -0.1200
     20 C20       -10.5739    0.7387   55.7795 C.3     1  ZINC000876376999   -0.5300
     21 H21       -10.4846    1.4661   54.9606 H       1  ZINC000876376999    0.1500
     22 C22        -9.4553    0.8469   56.8223 C.3     1  ZINC000876376999   -0.1000
     23 S23       -10.5615   -1.0098   55.2022 S.o2    1  ZINC000876376999    2.3700
     24 O24        -9.2257   -1.4699   55.0575 O.2     1  ZINC000876376999   -0.9300
     25 O25       -11.5037   -1.1856   54.1533 O.2     1  ZINC000876376999   -0.9300
     26 C26        -9.0069    0.0432   63.9206 C.3     1  ZINC000876376999    0.1400
     27 H27        -8.8166   -1.3202   65.9697 H       1  ZINC000876376999    0.0500
     28 H28        -7.2261   -0.5981   66.3115 H       1  ZINC000876376999    0.0600
     29 H29        -8.4030   -0.8225   67.6278 H       1  ZINC000876376999    0.0500
     30 H30        -9.9324    0.8012   66.4757 H       1  ZINC000876376999    0.0600
     31 H31        -8.3837    1.5338   66.9580 H       1  ZINC000876376999    0.0700
     32 H32        -9.0636    3.2756   65.1202 H       1  ZINC000876376999    0.0500
     33 H33        -9.2156    2.7054   63.4409 H       1  ZINC000876376999    0.0400
     34 H34       -10.9933    1.9019   65.5899 H       1  ZINC000876376999    0.3800
     35 H35        -6.7848    2.2712   65.3264 H       1  ZINC000876376999    0.0700
     36 H36        -6.5251    0.5671   64.8838 H       1  ZINC000876376999    0.0700
     37 H37        -7.4105    2.7744   62.9698 H       1  ZINC000876376999    0.0700
     38 H38        -5.7642    2.1052   63.0813 H       1  ZINC000876376999    0.0800
     39 H39        -7.1304    1.0710   61.2331 H       1  ZINC000876376999    0.0700
     40 H40        -6.5792   -0.1163   62.4430 H       1  ZINC000876376999    0.0700
     41 H41        -8.2431    0.8912   60.0966 H       1  ZINC000876376999    0.3900
     42 H42       -11.0348    0.0675   59.5414 H       1  ZINC000876376999    0.0800
     43 H43       -10.4287    1.6269   58.9337 H       1  ZINC000876376999    0.0700
     44 H44        -8.4784   -0.2865   58.2903 H       1  ZINC000876376999    0.0900
     45 H45        -9.3426   -2.1825   57.5656 H       1  ZINC000876376999    0.0900
     46 H46       -10.5285   -1.8096   58.8092 H       1  ZINC000876376999    0.0900
     47 H47       -13.2796   -0.8144   56.6774 H       1  ZINC000876376999    0.0800
     48 H48       -12.4523   -0.4285   58.1919 H       1  ZINC000876376999    0.0900
     49 H49       -12.6956    1.1494   55.8237 H       1  ZINC000876376999    0.0800
     50 H50       -11.8558    1.5767   57.3201 H       1  ZINC000876376999    0.0900
     51 H51        -9.4304    1.8827   57.2037 H       1  ZINC000876376999    0.0900
     52 H52        -8.4868    0.6948   56.3143 H       1  ZINC000876376999    0.0900
     53 H53        -8.5057   -0.8740   64.2298 H       1  ZINC000876376999    0.0600
     54 H54       -10.0871   -0.0919   63.9753 H       1  ZINC000876376999    0.1000
@<TRIPOS>BOND
     1     1     2    1
     2     1    27    1
     3     1    28    1
     4     1    29    1
     5     2     3    1
     6     2    30    1
     7     2    31    1
     8     3    26    1
     9     3     4    1
    10     3     6    1
    11     4     5    1
    12     4    32    1
    13     4    33    1
    14     5    34    1
    15     6     7    1
    16     6    35    1
    17     6    36    1
    18     7     8    1
    19     7    37    1
    20     7    38    1
    21     8     9    1
    22     8    39    1
    23     8    40    1
    24     9    10   am
    25     9    26    1
    26    10    11    2
    27    10    12   am
    28    12    13    1
    29    12    41    1
    30    13    14    1
    31    13    42    1
    32    13    43    1
    33    14    22    1
    34    14    15    1
    35    14    44    1
    36    15    16    1
    37    15    45    1
    38    15    46    1
    39    16    17    1
    40    16    23    1
    41    16    18    1
    42    18    19    1
    43    18    47    1
    44    18    48    1
    45    19    20    1
    46    19    49    1
    47    19    50    1
    48    20    21    1
    49    20    22    1
    50    20    23    1
    51    22    51    1
    52    22    52    1
    53    23    24    2
    54    23    25    2
    55    26    53    1
    56    26    54    1
@<TRIPOS>SUBSTRUCTURE
     1 ZINC000876376999        1 TEMP              0 ****  ****    0 ROOT


##########                                Name:    ZINC000561219098
##########                DOCK_Rotatable_Bonds:                   4
##########                         Heavy_Atoms:                  28
##########                    Molecular_Weight:             423.273
##########                DOCK_Rotatable_Bonds:                   4
##########                       Formal_Charge:          0.00999953
##########                     HBond_Acceptors:                   9
##########                        HBond_Donors:                   1
##########                         Heavy_Atoms:                  28
##########                          Grid_Score:          -26.902990
##########                     Grid_vdw_energy:          -26.249693
##########                      Grid_es_energy:           -0.653297
##########           Internal_energy_repulsive:           17.312214

@<TRIPOS>MOLECULE
ZINC000561219098
 45 48 1 0 0
SMALL
USER_CHARGES


@<TRIPOS>ATOM
      1 C1        -16.1844   -1.6883   49.9325 C.3     1  ZINC000561219098    0.0700
      2 N2        -15.6322   -1.1180   51.1638 N.pl3   1  ZINC000561219098   -0.4500
      3 C3        -16.3613   -0.6723   52.2270 C.2     1  ZINC000561219098   -0.0100
      4 C4        -15.5116   -0.2198   53.1682 C.2     1  ZINC000561219098   -0.1700
      5 C5        -14.1962   -0.3918   52.6682 C.2     1  ZINC000561219098   -0.1100
      6 C6        -12.9339   -0.0336   53.3640 C.2     1  ZINC000561219098    0.1600
      7 N7        -12.8422    0.5178   54.5565 N.2     1  ZINC000561219098   -0.2700
      8 N8        -11.4884    0.6996   54.8642 N.pl3   1  ZINC000561219098   -0.4700
      9 C9        -10.7513    0.2363   53.8098 C.2     1  ZINC000561219098    0.0300
     10 C10        -9.2830    0.2322   53.7062 C.2     1  ZINC000561219098    0.5900
     11 O11        -8.6765   -0.8220   53.7042 O.2     1  ZINC000561219098   -0.5000
     12 N12        -8.6108    1.3966   53.6136 N.am    1  ZINC000561219098   -0.6100
     13 C13        -9.3227    2.6844   53.6141 C.3     1  ZINC000561219098    0.0500
     14 C14        -8.8289    3.5104   52.4208 C.3     1  ZINC000561219098    0.0500
     15 O15        -7.4010    3.5744   52.4513 O.3     1  ZINC000561219098   -0.3700
     16 C16        -6.7554    2.3055   52.3212 C.3     1  ZINC000561219098    0.1200
     17 H17        -7.0715    1.8296   51.3929 H       1  ZINC000561219098    0.0900
     18 C18        -5.2612    2.5004   52.3037 C.ar    1  ZINC000561219098   -0.0500
     19 C19        -4.5025    1.9336   51.2974 C.ar    1  ZINC000561219098   -0.1000
     20 C20        -3.1299    2.1129   51.2807 C.ar    1  ZINC000561219098    0.1200
     21 F21        -2.3879    1.5592   50.2968 F       1  ZINC000561219098   -0.1200
     22 C22        -2.5176    2.8606   52.2734 C.ar    1  ZINC000561219098   -0.0600
     23 Cl23       -0.7964    3.0866   52.2535 Cl      1  ZINC000561219098   -0.0300
     24 C24        -3.2782    3.4272   53.2800 C.ar    1  ZINC000561219098   -0.0700
     25 C25        -4.6502    3.2517   53.2923 C.ar    1  ZINC000561219098   -0.0300
     26 Cl26       -5.6047    3.9635   54.5556 Cl      1  ZINC000561219098   -0.0400
     27 C27        -7.1427    1.4180   53.5151 C.3     1  ZINC000561219098    0.0900
     28 C28       -11.6385   -0.2312   52.8646 C.2     1  ZINC000561219098   -0.1700
     29 C29       -14.3075   -0.9525   51.4346 C.2     1  ZINC000561219098    0.0300
     30 H30       -16.2900   -2.7671   50.0471 H       1  ZINC000561219098    0.0800
     31 H31       -17.1608   -1.2466   49.7335 H       1  ZINC000561219098    0.0900
     32 H32       -15.5130   -1.4754   49.1005 H       1  ZINC000561219098    0.0900
     33 H33       -17.4387   -0.6809   52.3012 H       1  ZINC000561219098    0.1700
     34 H34       -15.7821    0.1972   54.1271 H       1  ZINC000561219098    0.1400
     35 H35       -11.1357    1.0864   55.6808 H       1  ZINC000561219098    0.4400
     36 H36       -10.3950    2.5112   53.5220 H       1  ZINC000561219098    0.1000
     37 H37        -9.1149    3.2184   54.5413 H       1  ZINC000561219098    0.0900
     38 H38        -9.1525    3.0389   51.4928 H       1  ZINC000561219098    0.0700
     39 H39        -9.2398    4.5182   52.4806 H       1  ZINC000561219098    0.1200
     40 H40        -4.9805    1.3505   50.5240 H       1  ZINC000561219098    0.1600
     41 H41        -2.8015    4.0099   54.0543 H       1  ZINC000561219098    0.1600
     42 H42        -6.7138    1.8261   54.4303 H       1  ZINC000561219098    0.0900
     43 H43        -6.7723    0.4054   53.3552 H       1  ZINC000561219098    0.1100
     44 H44       -11.3826   -0.6649   51.9092 H       1  ZINC000561219098    0.1600
     45 H45       -13.4887   -1.2141   50.7806 H       1  ZINC000561219098    0.1700
@<TRIPOS>BOND
     1     1     2    1
     2     1    30    1
     3     1    31    1
     4     1    32    1
     5     2    29    1
     6     2     3    1
     7     3     4    2
     8     3    33    1
     9     4     5    1
    10     4    34    1
    11     5     6    1
    12     5    29    2
    13     6    28    1
    14     6     7    2
    15     7     8    1
    16     8     9    1
    17     8    35    1
    18     9    10    1
    19     9    28    2
    20    10    11    2
    21    10    12   am
    22    12    27    1
    23    12    13    1
    24    13    14    1
    25    13    36    1
    26    13    37    1
    27    14    15    1
    28    14    38    1
    29    14    39    1
    30    15    16    1
    31    16    17    1
    32    16    18    1
    33    16    27    1
    34    18    25   ar
    35    18    19   ar
    36    19    20   ar
    37    19    40    1
    38    20    21    1
    39    20    22   ar
    40    22    23    1
    41    22    24   ar
    42    24    25   ar
    43    24    41    1
    44    25    26    1
    45    27    42    1
    46    27    43    1
    47    28    44    1
    48    29    45    1
@<TRIPOS>SUBSTRUCTURE
     1 ZINC000561219098        1 TEMP              0 ****  ****    0 ROOT


##########                                Name:    ZINC001002468398
##########                DOCK_Rotatable_Bonds:                   7
##########                         Heavy_Atoms:                  24
##########                    Molecular_Weight:             341.358
##########                DOCK_Rotatable_Bonds:                   7
##########                       Formal_Charge:           0.0100001
##########                     HBond_Acceptors:                   8
##########                        HBond_Donors:                   0
##########                         Heavy_Atoms:                  24
##########                          Grid_Score:          -26.894894
##########                     Grid_vdw_energy:          -26.165798
##########                      Grid_es_energy:           -0.729096
##########           Internal_energy_repulsive:           35.811661

@<TRIPOS>MOLECULE
ZINC001002468398
 45 47 1 0 0
SMALL
USER_CHARGES


@<TRIPOS>ATOM
      1 C1         -0.8394    1.9382   40.2578 C.3     1  ZINC001002468398   -0.1400
      2 C2          0.3197    1.3894   41.0923 C.3     1  ZINC001002468398   -0.0500
      3 C3          1.1174    2.5355   41.6590 C.2     1  ZINC001002468398    0.0500
      4 C4          1.8159    2.5368   42.8270 C.2     1  ZINC001002468398   -0.0800
      5 C5          1.9351    1.4163   43.7774 C.2     1  ZINC001002468398    0.6000
      6 O6          1.3752    0.3616   43.5473 O.2     1  ZINC001002468398   -0.5300
      7 N7          2.6647    1.5607   44.9015 N.am    1  ZINC001002468398   -0.6000
      8 C8          3.3392    2.8313   45.1786 C.3     1  ZINC001002468398    0.0900
      9 C9          2.7832    0.4472   45.8459 C.3     1  ZINC001002468398    0.1000
     10 C10         4.2210   -0.0756   45.8401 C.3     1  ZINC001002468398    0.1300
     11 H11         4.9156    0.7482   46.0045 H       1  ZINC001002468398    0.0800
     12 C12         4.5260   -0.7579   44.4899 C.3     1  ZINC001002468398   -0.1300
     13 C13         5.3976   -1.9730   44.9035 C.3     1  ZINC001002468398   -0.1300
     14 C14         4.7551   -2.3707   46.2558 C.3     1  ZINC001002468398    0.1000
     15 N15         4.3891   -1.0886   46.8924 N.am    1  ZINC001002468398   -0.6100
     16 C16         4.2339   -0.8847   48.2155 C.2     1  ZINC001002468398    0.5600
     17 O17         3.9305    0.2147   48.6282 O.2     1  ZINC001002468398   -0.5100
     18 C18         4.4372   -2.0228   49.1823 C.3     1  ZINC001002468398   -0.2000
     19 H19         4.5789   -3.0042   48.7299 H       1  ZINC001002468398    0.1500
     20 C20         3.6874   -1.9606   50.5145 C.3     1  ZINC001002468398   -0.1500
     21 C21         5.1993   -1.7241   50.4750 C.3     1  ZINC001002468398    0.2300
     22 F22         6.0242   -2.7317   50.9861 F       1  ZINC001002468398   -0.1500
     23 F23         5.6536   -0.4153   50.6693 F       1  ZINC001002468398   -0.1400
     24 N24         2.3840    3.7669   42.9521 N.2     1  ZINC001002468398   -0.4600
     25 C25         2.0524    4.4807   41.9183 C.2     1  ZINC001002468398    0.1700
     26 O26         1.2790    3.7477   41.1049 O.3     1  ZINC001002468398   -0.2000
     27 H27        -1.4827    2.5517   40.8886 H       1  ZINC001002468398    0.0600
     28 H28        -0.4449    2.5445   39.4425 H       1  ZINC001002468398    0.0600
     29 H29        -1.4164    1.1091   39.8480 H       1  ZINC001002468398    0.0700
     30 H30        -0.0748    0.7830   41.9076 H       1  ZINC001002468398    0.1200
     31 H31         0.9630    0.7759   40.4616 H       1  ZINC001002468398    0.0900
     32 H32         2.5953    3.6192   45.2976 H       1  ZINC001002468398    0.0700
     33 H33         3.9222    2.7408   46.0952 H       1  ZINC001002468398    0.0700
     34 H34         4.0018    3.0794   44.3496 H       1  ZINC001002468398    0.0700
     35 H35         2.5258    0.7914   46.8476 H       1  ZINC001002468398    0.0900
     36 H36         2.1044   -0.3532   45.5511 H       1  ZINC001002468398    0.0900
     37 H37         3.6059   -1.0893   44.0087 H       1  ZINC001002468398    0.1000
     38 H38         5.0844   -0.0874   43.8365 H       1  ZINC001002468398    0.0800
     39 H39         5.3111   -2.7811   44.1773 H       1  ZINC001002468398    0.0900
     40 H40         6.4389   -1.6797   45.0370 H       1  ZINC001002468398    0.0800
     41 H41         3.8668   -2.9801   46.0892 H       1  ZINC001002468398    0.0800
     42 H42         5.4743   -2.9080   46.8741 H       1  ZINC001002468398    0.0800
     43 H43         3.0470   -1.0965   50.6918 H       1  ZINC001002468398    0.1300
     44 H44         3.3361   -2.9012   50.9388 H       1  ZINC001002468398    0.1400
     45 H45         2.3555    5.5019   41.7403 H       1  ZINC001002468398    0.2600
@<TRIPOS>BOND
     1     1     2    1
     2     1    27    1
     3     1    28    1
     4     1    29    1
     5     2     3    1
     6     2    30    1
     7     2    31    1
     8     3    26    1
     9     3     4    2
    10     4     5    1
    11     4    24    1
    12     5     6    2
    13     5     7   am
    14     7     8    1
    15     7     9    1
    16     8    32    1
    17     8    33    1
    18     8    34    1
    19     9    10    1
    20     9    35    1
    21     9    36    1
    22    10    11    1
    23    10    15    1
    24    10    12    1
    25    12    13    1
    26    12    37    1
    27    12    38    1
    28    13    14    1
    29    13    39    1
    30    13    40    1
    31    14    15    1
    32    14    41    1
    33    14    42    1
    34    15    16   am
    35    16    17    2
    36    16    18    1
    37    18    19    1
    38    18    21    1
    39    18    20    1
    40    20    21    1
    41    20    43    1
    42    20    44    1
    43    21    22    1
    44    21    23    1
    45    24    25    2
    46    25    26    1
    47    25    45    1
@<TRIPOS>SUBSTRUCTURE
     1 ZINC001002468398        1 TEMP              0 ****  ****    0 ROOT


##########                                Name:    ZINC000446721380
##########                DOCK_Rotatable_Bonds:                   8
##########                         Heavy_Atoms:                  26
##########                    Molecular_Weight:             419.318
##########                DOCK_Rotatable_Bonds:                   8
##########                       Formal_Charge:           0.0199992
##########                     HBond_Acceptors:                   5
##########                        HBond_Donors:                   2
##########                         Heavy_Atoms:                  26
##########                          Grid_Score:          -26.892372
##########                     Grid_vdw_energy:          -25.603769
##########                      Grid_es_energy:           -1.288602
##########           Internal_energy_repulsive:            9.636059

@<TRIPOS>MOLECULE
ZINC000446721380
 49 51 1 0 0
SMALL
USER_CHARGES


@<TRIPOS>ATOM
      1 C1         -9.4177    0.9428   64.5822 C.3     1  ZINC000446721380   -0.1200
      2 C2         -9.0699    0.5665   63.1649 C.ar    1  ZINC000446721380   -0.0300
      3 C3         -7.7473    0.5330   62.7640 C.ar    1  ZINC000446721380   -0.1600
      4 C4         -7.4249    0.1882   61.4642 C.ar    1  ZINC000446721380   -0.0500
      5 C5         -8.4241   -0.1238   60.5631 C.ar    1  ZINC000446721380   -0.1500
      6 C6         -8.0720   -0.5000   59.1469 C.3     1  ZINC000446721380    0.1900
      7 N7         -8.1436    0.6886   58.2937 N.am    1  ZINC000446721380   -0.7300
      8 C8         -7.0121    1.3164   57.9164 C.2     1  ZINC000446721380    0.7100
      9 O9         -5.9320    0.8953   58.2829 O.2     1  ZINC000446721380   -0.5700
     10 N10        -7.0781    2.4109   57.1328 N.am    1  ZINC000446721380   -0.6900
     11 C11        -5.9029    3.0630   56.7408 C.ar    1  ZINC000446721380    0.2000
     12 C12        -5.1233    3.7181   57.6842 C.ar    1  ZINC000446721380   -0.1200
     13 C13        -3.9638    4.3603   57.2944 C.ar    1  ZINC000446721380   -0.0800
     14 C14        -3.5793    4.3513   55.9664 C.ar    1  ZINC000446721380   -0.1300
     15 C15        -4.3537    3.7000   55.0236 C.ar    1  ZINC000446721380   -0.0700
     16 C16        -5.5114    3.0510   55.4076 C.ar    1  ZINC000446721380   -0.1300
     17 Br17       -6.5695    2.1602   54.1181 Br      1  ZINC000446721380   -0.0500
     18 C18        -9.7524   -0.0909   60.9631 C.ar    1  ZINC000446721380    0.1500
     19 O19       -10.7373   -0.3978   60.0785 O.3     1  ZINC000446721380   -0.3100
     20 C20       -11.5984    0.6673   59.6710 C.3     1  ZINC000446721380    0.0700
     21 C21       -12.9011    0.0865   59.1173 C.3     1  ZINC000446721380   -0.1200
     22 H22       -13.4407    0.8408   58.5444 H       1  ZINC000446721380    0.1000
     23 C23       -13.7847   -0.4553   60.2672 C.3     1  ZINC000446721380   -0.1500
     24 C24       -14.3437   -1.7660   59.6572 C.3     1  ZINC000446721380    0.0500
     25 O25       -13.2354   -2.2783   58.8867 O.3     1  ZINC000446721380   -0.3800
     26 C26       -12.6123   -1.1497   58.2439 C.3     1  ZINC000446721380    0.0500
     27 C27       -10.0728    0.2499   62.2689 C.ar    1  ZINC000446721380   -0.2100
     28 H28        -9.4380    0.0462   65.2016 H       1  ZINC000446721380    0.0800
     29 H29        -8.6691    1.6345   64.9685 H       1  ZINC000446721380    0.0700
     30 H30       -10.3975    1.4199   64.6013 H       1  ZINC000446721380    0.0700
     31 H31        -6.9645    0.7770   63.4670 H       1  ZINC000446721380    0.1300
     32 H32        -6.3909    0.1630   61.1534 H       1  ZINC000446721380    0.1300
     33 H33        -7.0610   -0.9065   59.1197 H       1  ZINC000446721380    0.0800
     34 H34        -8.7750   -1.2501   58.7848 H       1  ZINC000446721380    0.0800
     35 H35        -9.0052    1.0239   58.0003 H       1  ZINC000446721380    0.4000
     36 H36        -7.9398    2.7469   56.8403 H       1  ZINC000446721380    0.4100
     37 H37        -5.4229    3.7260   58.7217 H       1  ZINC000446721380    0.1500
     38 H38        -3.3571    4.8705   58.0280 H       1  ZINC000446721380    0.1300
     39 H39        -2.6725    4.8541   55.6645 H       1  ZINC000446721380    0.1300
     40 H40        -4.0510    3.6954   53.9869 H       1  ZINC000446721380    0.1400
     41 H41       -11.8196    1.3036   60.5280 H       1  ZINC000446721380    0.0700
     42 H42       -11.1059    1.2572   58.8980 H       1  ZINC000446721380    0.0700
     43 H43       -13.1852   -0.6635   61.1535 H       1  ZINC000446721380    0.0800
     44 H44       -14.5910    0.2405   60.4993 H       1  ZINC000446721380    0.0900
     45 H45       -14.6213   -2.4676   60.4438 H       1  ZINC000446721380    0.1000
     46 H46       -15.1958   -1.5556   59.0107 H       1  ZINC000446721380    0.0600
     47 H47       -13.0341   -1.0108   57.2485 H       1  ZINC000446721380    0.0600
     48 H48       -11.5365   -1.3106   58.1737 H       1  ZINC000446721380    0.0900
     49 H49       -11.1059    0.2762   62.5826 H       1  ZINC000446721380    0.1300
@<TRIPOS>BOND
     1     1     2    1
     2     1    28    1
     3     1    29    1
     4     1    30    1
     5     2    27   ar
     6     2     3   ar
     7     3     4   ar
     8     3    31    1
     9     4     5   ar
    10     4    32    1
    11     5     6    1
    12     5    18   ar
    13     6     7    1
    14     6    33    1
    15     6    34    1
    16     7     8   am
    17     7    35    1
    18     8     9    2
    19     8    10   am
    20    10    11    1
    21    10    36    1
    22    11    16   ar
    23    11    12   ar
    24    12    13   ar
    25    12    37    1
    26    13    14   ar
    27    13    38    1
    28    14    15   ar
    29    14    39    1
    30    15    16   ar
    31    15    40    1
    32    16    17    1
    33    18    19    1
    34    18    27   ar
    35    19    20    1
    36    20    21    1
    37    20    41    1
    38    20    42    1
    39    21    22    1
    40    21    26    1
    41    21    23    1
    42    23    24    1
    43    23    43    1
    44    23    44    1
    45    24    25    1
    46    24    45    1
    47    24    46    1
    48    25    26    1
    49    26    47    1
    50    26    48    1
    51    27    49    1
@<TRIPOS>SUBSTRUCTURE
     1 ZINC000446721380        1 TEMP              0 ****  ****    0 ROOT


##########                                Name:    ZINC000269287897
##########                DOCK_Rotatable_Bonds:                   8
##########                         Heavy_Atoms:                  23
##########                    Molecular_Weight:             385.301
##########                DOCK_Rotatable_Bonds:                   8
##########                       Formal_Charge:           0.0300002
##########                     HBond_Acceptors:                   5
##########                        HBond_Donors:                   1
##########                         Heavy_Atoms:                  23
##########                          Grid_Score:          -26.864355
##########                     Grid_vdw_energy:          -26.586731
##########                      Grid_es_energy:           -0.277623
##########           Internal_energy_repulsive:            8.067779

@<TRIPOS>MOLECULE
ZINC000269287897
 48 49 1 0 0
SMALL
USER_CHARGES


@<TRIPOS>ATOM
      1 C1         -8.2571    0.1794   66.7430 C.3     1  ZINC000269287897    0.0300
      2 O2         -7.2703    0.0630   65.7160 O.3     1  ZINC000269287897   -0.3800
      3 C3         -7.6343    0.6928   64.4861 C.3     1  ZINC000269287897    0.0600
      4 C4         -6.5096    0.5070   63.4655 C.3     1  ZINC000269287897    0.0600
      5 O5         -6.8546    1.1739   62.2497 O.3     1  ZINC000269287897   -0.3800
      6 C6         -7.6417    0.3837   61.3564 C.3     1  ZINC000269287897    0.0700
      7 C7         -8.0714    1.2389   60.1628 C.3     1  ZINC000269287897   -0.1000
      8 H8         -8.7384    2.0408   60.4793 H       1  ZINC000269287897    0.1000
      9 C9         -6.8376    1.8055   59.4116 C.3     1  ZINC000269287897   -0.1200
     10 C10        -7.3690    2.0071   57.9768 C.3     1  ZINC000269287897    0.1000
     11 N11        -8.5324    1.1230   57.8140 N.am    1  ZINC000269287897   -0.6300
     12 C12        -9.2909    1.0192   56.7048 C.2     1  ZINC000269287897    0.7300
     13 O13        -9.0321    1.6926   55.7260 O.2     1  ZINC000269287897   -0.5600
     14 N14       -10.3363    0.1690   56.6805 N.am    1  ZINC000269287897   -0.6900
     15 C15       -11.1242    0.0611   55.5285 C.ar    1  ZINC000269287897    0.1800
     16 C16       -10.7973   -0.8636   54.5462 C.ar    1  ZINC000269287897   -0.0600
     17 C17        -9.5933   -1.7534   54.7188 C.3     1  ZINC000269287897   -0.1000
     18 C18       -11.5771   -0.9681   53.4105 C.ar    1  ZINC000269287897   -0.0900
     19 C19       -12.6823   -0.1528   53.2513 C.ar    1  ZINC000269287897   -0.0800
     20 C20       -13.5303   -0.2697   52.0111 C.3     1  ZINC000269287897   -0.1100
     21 C21       -13.0115    0.7696   54.2279 C.ar    1  ZINC000269287897   -0.0900
     22 C22       -12.2386    0.8758   55.3683 C.ar    1  ZINC000269287897   -0.1000
     23 Br23      -12.6895    2.1367   56.7034 Br      1  ZINC000269287897   -0.0500
     24 C24        -8.7320    0.3681   59.0651 C.3     1  ZINC000269287897    0.1400
     25 H25        -8.4324    1.2329   66.9607 H       1  ZINC000269287897    0.0400
     26 H26        -9.1862   -0.2819   66.4081 H       1  ZINC000269287897    0.0400
     27 H27        -7.9054   -0.3241   67.6435 H       1  ZINC000269287897    0.0900
     28 H28        -8.5499    0.2415   64.1039 H       1  ZINC000269287897    0.0600
     29 H29        -7.7976    1.7568   64.6571 H       1  ZINC000269287897    0.0600
     30 H30        -5.5860    0.9288   63.8619 H       1  ZINC000269287897    0.0700
     31 H31        -6.3689   -0.5559   63.2696 H       1  ZINC000269287897    0.0600
     32 H32        -7.0517   -0.4622   61.0036 H       1  ZINC000269287897    0.0600
     33 H33        -8.5259    0.0176   61.8782 H       1  ZINC000269287897    0.0500
     34 H34        -6.5258    2.7561   59.8445 H       1  ZINC000269287897    0.0900
     35 H35        -6.0170    1.0882   59.4218 H       1  ZINC000269287897    0.0800
     36 H36        -7.6696    3.0452   57.8353 H       1  ZINC000269287897    0.0700
     37 H37        -6.5971    1.7407   57.2548 H       1  ZINC000269287897    0.0700
     38 H38       -10.5428   -0.3683   57.4614 H       1  ZINC000269287897    0.4100
     39 H39        -9.9106   -2.7248   55.0979 H       1  ZINC000269287897    0.0900
     40 H40        -9.0967   -1.8832   53.7572 H       1  ZINC000269287897    0.0600
     41 H41        -8.9017   -1.2956   55.4260 H       1  ZINC000269287897    0.0600
     42 H42       -11.3229   -1.6873   52.6460 H       1  ZINC000269287897    0.1300
     43 H43       -14.3209   -1.0010   52.1791 H       1  ZINC000269287897    0.0700
     44 H44       -13.9743    0.6991   51.7819 H       1  ZINC000269287897    0.0700
     45 H45       -12.9092   -0.5916   51.1753 H       1  ZINC000269287897    0.0700
     46 H46       -13.8754    1.4051   54.1005 H       1  ZINC000269287897    0.1400
     47 H47        -8.2402   -0.6028   59.0049 H       1  ZINC000269287897    0.0700
     48 H48        -9.7958    0.2434   59.2673 H       1  ZINC000269287897    0.0900
@<TRIPOS>BOND
     1     1     2    1
     2     1    25    1
     3     1    26    1
     4     1    27    1
     5     2     3    1
     6     3     4    1
     7     3    28    1
     8     3    29    1
     9     4     5    1
    10     4    30    1
    11     4    31    1
    12     5     6    1
    13     6     7    1
    14     6    32    1
    15     6    33    1
    16     7     8    1
    17     7    24    1
    18     7     9    1
    19     9    10    1
    20     9    34    1
    21     9    35    1
    22    10    11    1
    23    10    36    1
    24    10    37    1
    25    11    12   am
    26    11    24    1
    27    12    13    2
    28    12    14   am
    29    14    15    1
    30    14    38    1
    31    15    22   ar
    32    15    16   ar
    33    16    17    1
    34    16    18   ar
    35    17    39    1
    36    17    40    1
    37    17    41    1
    38    18    19   ar
    39    18    42    1
    40    19    20    1
    41    19    21   ar
    42    20    43    1
    43    20    44    1
    44    20    45    1
    45    21    22   ar
    46    21    46    1
    47    22    23    1
    48    24    47    1
    49    24    48    1
@<TRIPOS>SUBSTRUCTURE
     1 ZINC000269287897        1 TEMP              0 ****  ****    0 ROOT


##########                                Name:    ZINC000288921983
##########                DOCK_Rotatable_Bonds:                   6
##########                         Heavy_Atoms:                  26
##########                    Molecular_Weight:             356.428
##########                DOCK_Rotatable_Bonds:                   6
##########                       Formal_Charge:           0.0199997
##########                     HBond_Acceptors:                   8
##########                        HBond_Donors:                   1
##########                         Heavy_Atoms:                  26
##########                          Grid_Score:          -26.836662
##########                     Grid_vdw_energy:          -27.130825
##########                      Grid_es_energy:            0.294164
##########           Internal_energy_repulsive:           68.137955

@<TRIPOS>MOLECULE
ZINC000288921983
 50 53 1 0 0
SMALL
USER_CHARGES


@<TRIPOS>ATOM
      1 C1          3.0471    1.4272   50.6685 C.3     1  ZINC000288921983   -0.1400
      2 C2          2.2268    2.6511   50.2561 C.3     1  ZINC000288921983   -0.0500
      3 C3          0.7628    2.3737   50.4814 C.ar    1  ZINC000288921983    0.3000
      4 N4          0.0570    1.8330   49.5086 N.ar    1  ZINC000288921983   -0.5000
      5 C5         -1.2305    1.5739   49.6667 C.ar    1  ZINC000288921983    0.1300
      6 C6         -1.8370    1.8812   50.8817 C.ar    1  ZINC000288921983    0.0500
      7 N7         -3.1970    1.6230   51.0912 N.am    1  ZINC000288921983   -0.6700
      8 C8         -3.9373    2.4706   51.8328 C.2     1  ZINC000288921983    0.7100
      9 O9         -3.4241    3.4593   52.3200 O.2     1  ZINC000288921983   -0.5500
     10 N10        -5.2465    2.2220   52.0345 N.am    1  ZINC000288921983   -0.6200
     11 C11        -5.8807    1.0313   51.4526 C.3     1  ZINC000288921983    0.1100
     12 C12        -6.5815    0.2506   52.5689 C.3     1  ZINC000288921983   -0.1400
     13 C13        -7.5477    1.1801   53.3070 C.3     1  ZINC000288921983   -0.1200
     14 C14        -6.7652    2.3324   53.9412 C.3     1  ZINC000288921983   -0.1300
     15 C15        -6.0652    3.1335   52.8455 C.3     1  ZINC000288921983    0.2700
     16 H16        -6.8104    3.6103   52.2087 H       1  ZINC000288921983    0.1100
     17 C17        -5.1876    4.1864   53.4719 C.2     1  ZINC000288921983    0.1700
     18 N18        -5.0017    5.3977   53.0299 N.2     1  ZINC000288921983   -0.2500
     19 N19        -4.1917    6.0185   53.8136 N.2     1  ZINC000288921983   -0.2700
     20 C20        -3.8335    5.2243   54.7822 C.2     1  ZINC000288921983    0.1800
     21 C21        -2.8950    5.5625   55.9118 C.3     1  ZINC000288921983   -0.0300
     22 C22        -3.0052    4.6067   57.1113 C.3     1  ZINC000288921983   -0.1200
     23 C23        -1.9422    3.7390   56.4172 C.3     1  ZINC000288921983   -0.1400
     24 C24        -1.4698    5.0211   55.7116 C.3     1  ZINC000288921983   -0.1200
     25 O25        -4.4581    4.0500   54.5919 O.3     1  ZINC000288921983   -0.2200
     26 C26        -1.0555    2.4513   51.8830 C.ar    1  ZINC000288921983    0.1600
     27 N27         0.2268    2.6741   51.6474 N.ar    1  ZINC000288921983   -0.5000
     28 H28         4.1060    1.6279   50.5055 H       1  ZINC000288921983    0.0700
     29 H29         2.8760    1.2139   51.7236 H       1  ZINC000288921983    0.0600
     30 H30         2.7438    0.5681   50.0701 H       1  ZINC000288921983    0.0600
     31 H31         2.5301    3.5103   50.8543 H       1  ZINC000288921983    0.0900
     32 H32         2.3979    2.8645   49.2009 H       1  ZINC000288921983    0.0900
     33 H33        -1.8028    1.1310   48.8651 H       1  ZINC000288921983    0.1700
     34 H34        -3.6063    0.8341   50.7026 H       1  ZINC000288921983    0.4100
     35 H35        -6.6128    1.3359   50.7047 H       1  ZINC000288921983    0.0800
     36 H36        -5.1209    0.4026   50.9884 H       1  ZINC000288921983    0.0800
     37 H37        -7.1364   -0.5824   52.1372 H       1  ZINC000288921983    0.0900
     38 H38        -5.8376   -0.1307   53.2684 H       1  ZINC000288921983    0.0700
     39 H39        -8.2763    1.5804   52.6021 H       1  ZINC000288921983    0.0700
     40 H40        -8.0657    0.6207   54.0861 H       1  ZINC000288921983    0.0800
     41 H41        -7.4510    2.9811   54.4863 H       1  ZINC000288921983    0.0900
     42 H42        -6.0197    1.9314   54.6278 H       1  ZINC000288921983    0.0900
     43 H43        -2.9270    6.6166   56.1873 H       1  ZINC000288921983    0.1000
     44 H44        -2.6665    5.0440   58.0506 H       1  ZINC000288921983    0.1000
     45 H45        -3.9777    4.1218   57.1954 H       1  ZINC000288921983    0.0800
     46 H46        -1.2047    3.3206   57.1022 H       1  ZINC000288921983    0.0700
     47 H47        -2.3604    2.9958   55.7384 H       1  ZINC000288921983    0.1000
     48 H48        -1.2027    4.8707   54.6655 H       1  ZINC000288921983    0.0700
     49 H49        -0.7112    5.5716   56.2681 H       1  ZINC000288921983    0.1000
     50 H50        -1.4890    2.7044   52.8392 H       1  ZINC000288921983    0.1800
@<TRIPOS>BOND
     1     1     2    1
     2     1    28    1
     3     1    29    1
     4     1    30    1
     5     2     3    1
     6     2    31    1
     7     2    32    1
     8     3    27   ar
     9     3     4   ar
    10     4     5   ar
    11     5     6   ar
    12     5    33    1
    13     6     7    1
    14     6    26   ar
    15     7     8   am
    16     7    34    1
    17     8     9    2
    18     8    10   am
    19    10    15    1
    20    10    11    1
    21    11    12    1
    22    11    35    1
    23    11    36    1
    24    12    13    1
    25    12    37    1
    26    12    38    1
    27    13    14    1
    28    13    39    1
    29    13    40    1
    30    14    15    1
    31    14    41    1
    32    14    42    1
    33    15    16    1
    34    15    17    1
    35    17    25    1
    36    17    18    2
    37    18    19    1
    38    19    20    2
    39    20    21    1
    40    20    25    1
    41    21    24    1
    42    21    22    1
    43    21    43    1
    44    22    23    1
    45    22    44    1
    46    22    45    1
    47    23    24    1
    48    23    46    1
    49    23    47    1
    50    24    48    1
    51    24    49    1
    52    26    27   ar
    53    26    50    1
@<TRIPOS>SUBSTRUCTURE
     1 ZINC000288921983        1 TEMP              0 ****  ****    0 ROOT


##########                                Name:    ZINC000888733009
##########                DOCK_Rotatable_Bonds:                   6
##########                         Heavy_Atoms:                  25
##########                    Molecular_Weight:             360.434
##########                DOCK_Rotatable_Bonds:                   6
##########                       Formal_Charge:        -1.02073e-06
##########                     HBond_Acceptors:                   7
##########                        HBond_Donors:                   2
##########                         Heavy_Atoms:                  25
##########                          Grid_Score:          -26.836067
##########                     Grid_vdw_energy:          -25.206953
##########                      Grid_es_energy:           -1.629114
##########           Internal_energy_repulsive:            3.758672

@<TRIPOS>MOLECULE
ZINC000888733009
 45 48 1 0 0
SMALL
USER_CHARGES


@<TRIPOS>ATOM
      1 C1        -15.3825   -3.0385   57.3644 C.3     1  ZINC000888733009   -0.1500
      2 C2        -14.3702   -1.8944   57.2775 C.3     1  ZINC000888733009    0.0700
      3 H3        -14.0327   -1.7650   56.2493 H       1  ZINC000888733009    0.0700
      4 C4        -13.1655   -2.1697   58.2091 C.3     1  ZINC000888733009   -0.1300
      5 C5        -12.8146   -0.7833   58.7657 C.3     1  ZINC000888733009   -0.1100
      6 C6        -12.6719   -0.6925   60.2829 C.3     1  ZINC000888733009   -0.1300
      7 C7        -11.5200    0.2968   60.0269 C.3     1  ZINC000888733009    0.1200
      8 N8        -10.3731    0.1038   60.9178 N.am    1  ZINC000888733009   -0.7100
      9 C9         -9.9620    1.1100   61.7148 C.2     1  ZINC000888733009    0.5900
     10 O10       -10.5447    2.1785   61.6955 O.2     1  ZINC000888733009   -0.5600
     11 C11        -8.8134    0.9175   62.6049 C.2     1  ZINC000888733009   -0.2400
     12 C12        -7.5454    1.3497   62.3117 C.2     1  ZINC000888733009    0.0800
     13 N13        -7.1890    2.0165   61.1512 N.am    1  ZINC000888733009   -0.6100
     14 C14        -6.7982    1.3190   60.0662 C.2     1  ZINC000888733009    0.6000
     15 O15        -6.7570    0.1033   60.1065 O.2     1  ZINC000888733009   -0.4900
     16 C16        -6.4228    2.0246   58.8374 C.2     1  ZINC000888733009   -0.0900
     17 C17        -6.3780    3.3796   58.6716 C.2     1  ZINC000888733009   -0.1000
     18 C18        -5.9713    3.6110   57.3484 C.2     1  ZINC000888733009   -0.2300
     19 C19        -5.7880    2.4027   56.7715 C.2     1  ZINC000888733009    0.0100
     20 O20        -6.0553    1.4495   57.6735 O.3     1  ZINC000888733009   -0.1600
     21 S21        -6.4681    0.9540   63.5719 S.3     1  ZINC000888733009    0.3000
     22 C22        -7.7334    0.1919   64.5191 C.2     1  ZINC000888733009   -0.2800
     23 C23        -8.8974    0.2567   63.8889 C.2     1  ZINC000888733009   -0.0900
     24 C24       -11.3494   -0.3710   58.6499 C.3     1  ZINC000888733009   -0.1400
     25 C25       -13.8317    0.1745   58.1311 C.3     1  ZINC000888733009    0.0700
     26 O26       -14.9531   -0.6686   57.7737 O.3     1  ZINC000888733009   -0.3700
     27 H27       -16.2365   -2.8174   56.7241 H       1  ZINC000888733009    0.0600
     28 H28       -14.9123   -3.9653   57.0358 H       1  ZINC000888733009    0.0700
     29 H29       -15.7198   -3.1477   58.3951 H       1  ZINC000888733009    0.0600
     30 H30       -13.4508   -2.8455   59.0153 H       1  ZINC000888733009    0.0800
     31 H31       -12.3286   -2.5785   57.6428 H       1  ZINC000888733009    0.0800
     32 H32       -13.5331   -0.2429   60.7773 H       1  ZINC000888733009    0.0800
     33 H33       -12.3530   -1.6247   60.7490 H       1  ZINC000888733009    0.0900
     34 H34       -11.8423    1.3365   59.9718 H       1  ZINC000888733009    0.1200
     35 H35        -9.9095   -0.7480   60.9341 H       1  ZINC000888733009    0.4000
     36 H36        -7.2207    2.9854   61.1194 H       1  ZINC000888733009    0.4400
     37 H37        -6.6107    4.1280   59.4147 H       1  ZINC000888733009    0.1700
     38 H38        -5.8315    4.5737   56.8792 H       1  ZINC000888733009    0.1600
     39 H39        -5.4732    2.2337   55.7523 H       1  ZINC000888733009    0.2200
     40 H40        -7.5845   -0.2644   65.4866 H       1  ZINC000888733009    0.1700
     41 H41        -9.8143   -0.1498   64.2897 H       1  ZINC000888733009    0.1500
     42 H42       -10.6565   -1.2123   58.6542 H       1  ZINC000888733009    0.0900
     43 H43       -11.1561    0.3350   57.8422 H       1  ZINC000888733009    0.0800
     44 H44       -14.1396    0.9334   58.8504 H       1  ZINC000888733009    0.0900
     45 H45       -13.4102    0.6415   57.2410 H       1  ZINC000888733009    0.0700
@<TRIPOS>BOND
     1     1     2    1
     2     1    27    1
     3     1    28    1
     4     1    29    1
     5     2     3    1
     6     2    26    1
     7     2     4    1
     8     4     5    1
     9     4    30    1
    10     4    31    1
    11     5    24    1
    12     5     6    1
    13     5    25    1
    14     6     7    1
    15     6    32    1
    16     6    33    1
    17     7     8    1
    18     7    24    1
    19     7    34    1
    20     8     9   am
    21     8    35    1
    22     9    10    2
    23     9    11    1
    24    11    23    1
    25    11    12    2
    26    12    13    1
    27    12    21    1
    28    13    14   am
    29    13    36    1
    30    14    15    2
    31    14    16    1
    32    16    20    1
    33    16    17    2
    34    17    18    1
    35    17    37    1
    36    18    19    2
    37    18    38    1
    38    19    20    1
    39    19    39    1
    40    21    22    1
    41    22    23    2
    42    22    40    1
    43    23    41    1
    44    24    42    1
    45    24    43    1
    46    25    26    1
    47    25    44    1
    48    25    45    1
@<TRIPOS>SUBSTRUCTURE
     1 ZINC000888733009        1 TEMP              0 ****  ****    0 ROOT


##########                                Name:    ZINC001015666108
##########                DOCK_Rotatable_Bonds:                   7
##########                         Heavy_Atoms:                  25
##########                    Molecular_Weight:             346.429
##########                DOCK_Rotatable_Bonds:                   7
##########                       Formal_Charge:          -0.0199997
##########                     HBond_Acceptors:                   7
##########                        HBond_Donors:                   1
##########                         Heavy_Atoms:                  25
##########                          Grid_Score:          -26.827316
##########                     Grid_vdw_energy:          -26.466751
##########                      Grid_es_energy:           -0.360564
##########           Internal_energy_repulsive:           24.491827

@<TRIPOS>MOLECULE
ZINC001015666108
 51 53 1 0 0
SMALL
USER_CHARGES


@<TRIPOS>ATOM
      1 C1         -2.7880    5.0089   55.3534 C.3     1  ZINC001015666108   -0.1400
      2 C2         -3.1413    4.5922   53.9242 C.3     1  ZINC001015666108   -0.0700
      3 C3         -1.9234    4.0086   53.2556 C.2     1  ZINC001015666108   -0.0700
      4 C4         -1.9084    3.0549   52.2785 C.2     1  ZINC001015666108   -0.0900
      5 C5         -3.0846    2.4087   51.6869 C.2     1  ZINC001015666108    0.6100
      6 O6         -2.9429    1.5270   50.8600 O.2     1  ZINC001015666108   -0.5100
      7 N7         -4.3222    2.7910   52.0591 N.am    1  ZINC001015666108   -0.7200
      8 C8         -5.4971    2.1467   51.4669 C.3     1  ZINC001015666108    0.1400
      9 H9         -5.2600    1.7702   50.4718 H       1  ZINC001015666108    0.1100
     10 C10        -5.9912    0.9954   52.3726 C.3     1  ZINC001015666108   -0.1300
     11 C11        -7.1298    1.6595   53.1869 C.3     1  ZINC001015666108    0.0300
     12 N12        -7.7757    2.5589   52.1971 N.3     1  ZINC001015666108   -0.5100
     13 C13        -8.5493    3.6117   52.8686 C.3     1  ZINC001015666108    0.1700
     14 H14        -7.9064    4.1439   53.5697 H       1  ZINC001015666108    0.0900
     15 C15        -9.0882    4.5927   51.8255 C.3     1  ZINC001015666108   -0.1500
     16 C16        -9.7010    2.9899   53.6157 C.2     1  ZINC001015666108    0.1900
     17 N17       -10.0633    1.7301   53.5840 N.2     1  ZINC001015666108   -0.4800
     18 C18       -11.1303    1.6396   54.3977 C.2     1  ZINC001015666108    0.1800
     19 C19       -11.9167    0.3906   54.7018 C.3     1  ZINC001015666108    0.0000
     20 C20       -10.9845   -0.6670   55.2962 C.3     1  ZINC001015666108   -0.1500
     21 C21       -13.0239    0.7169   55.7059 C.3     1  ZINC001015666108   -0.1500
     22 N22       -11.3582    2.8269   54.8740 N.2     1  ZINC001015666108   -0.3800
     23 O23       -10.5447    3.6161   54.4416 O.3     1  ZINC001015666108    0.1000
     24 C24        -6.6724    3.1391   51.3969 C.3     1  ZINC001015666108    0.0300
     25 O25        -0.6221    2.8112   51.9527 O.3     1  ZINC001015666108   -0.1700
     26 C26         0.1791    3.5846   52.6967 C.2     1  ZINC001015666108    0.0000
     27 C27        -0.5849    4.3443   53.5122 C.2     1  ZINC001015666108   -0.2200
     28 H28        -3.6689    5.4311   55.8371 H       1  ZINC001015666108    0.0600
     29 H29        -2.4491    4.1370   55.9128 H       1  ZINC001015666108    0.0600
     30 H30        -1.9943    5.7556   55.3284 H       1  ZINC001015666108    0.0500
     31 H31        -3.9351    3.8456   53.9492 H       1  ZINC001015666108    0.0900
     32 H32        -3.4802    5.4642   53.3648 H       1  ZINC001015666108    0.0700
     33 H33        -4.4350    3.4929   52.7191 H       1  ZINC001015666108    0.4000
     34 H34        -6.3764    0.1708   51.7726 H       1  ZINC001015666108    0.0900
     35 H35        -5.1935    0.6540   53.0323 H       1  ZINC001015666108    0.0800
     36 H36        -7.8358    0.9094   53.5433 H       1  ZINC001015666108    0.0800
     37 H37        -6.7230    2.2328   54.0199 H       1  ZINC001015666108    0.0500
     38 H38        -9.7311    4.0606   51.1243 H       1  ZINC001015666108    0.0800
     39 H39        -9.6623    5.3739   52.3238 H       1  ZINC001015666108    0.0700
     40 H40        -8.2553    5.0425   51.2852 H       1  ZINC001015666108    0.0800
     41 H41       -12.3608    0.0081   53.7827 H       1  ZINC001015666108    0.1000
     42 H42       -10.5403   -0.2846   56.2152 H       1  ZINC001015666108    0.0600
     43 H43       -11.5533   -1.5704   55.5161 H       1  ZINC001015666108    0.0700
     44 H44       -10.1957   -0.8995   54.5808 H       1  ZINC001015666108    0.0600
     45 H45       -12.5798    1.0993   56.6250 H       1  ZINC001015666108    0.0600
     46 H46       -13.6881    1.4703   55.2824 H       1  ZINC001015666108    0.0600
     47 H47       -13.5928   -0.1866   55.9259 H       1  ZINC001015666108    0.0700
     48 H48        -6.3734    4.0990   51.8179 H       1  ZINC001015666108    0.0600
     49 H49        -6.9917    3.2676   50.3626 H       1  ZINC001015666108    0.1000
     50 H50         1.2580    3.6013   52.6497 H       1  ZINC001015666108    0.2100
     51 H51        -0.2318    5.0690   54.2310 H       1  ZINC001015666108    0.1600
@<TRIPOS>BOND
     1     1     2    1
     2     1    28    1
     3     1    29    1
     4     1    30    1
     5     2     3    1
     6     2    31    1
     7     2    32    1
     8     3    27    1
     9     3     4    2
    10     4     5    1
    11     4    25    1
    12     5     6    2
    13     5     7   am
    14     7     8    1
    15     7    33    1
    16     8     9    1
    17     8    24    1
    18     8    10    1
    19    10    11    1
    20    10    34    1
    21    10    35    1
    22    11    12    1
    23    11    36    1
    24    11    37    1
    25    12    13    1
    26    12    24    1
    27    13    14    1
    28    13    15    1
    29    13    16    1
    30    15    38    1
    31    15    39    1
    32    15    40    1
    33    16    23    1
    34    16    17    2
    35    17    18    1
    36    18    19    1
    37    18    22    2
    38    19    20    1
    39    19    21    1
    40    19    41    1
    41    20    42    1
    42    20    43    1
    43    20    44    1
    44    21    45    1
    45    21    46    1
    46    21    47    1
    47    22    23    1
    48    24    48    1
    49    24    49    1
    50    25    26    1
    51    26    27    2
    52    26    50    1
    53    27    51    1
@<TRIPOS>SUBSTRUCTURE
     1 ZINC001015666108        1 TEMP              0 ****  ****    0 ROOT


##########                                Name:    ZINC001579482641
##########                DOCK_Rotatable_Bonds:                   5
##########                         Heavy_Atoms:                  26
##########                    Molecular_Weight:             355.359
##########                DOCK_Rotatable_Bonds:                   5
##########                       Formal_Charge:                0.05
##########                     HBond_Acceptors:                  11
##########                        HBond_Donors:                   1
##########                         Heavy_Atoms:                  26
##########                          Grid_Score:          -26.825563
##########                     Grid_vdw_energy:          -26.217731
##########                      Grid_es_energy:           -0.607832
##########           Internal_energy_repulsive:           17.036398

@<TRIPOS>MOLECULE
ZINC001579482641
 43 46 1 0 0
SMALL
USER_CHARGES


@<TRIPOS>ATOM
      1 C1         -9.9151    0.8880   62.1583 C.3     1  ZINC001579482641    0.0300
      2 O2         -9.3684    1.3683   60.9018 O.3     1  ZINC001579482641   -0.3300
      3 C3         -9.2418    0.4693   59.9064 C.2     1  ZINC001579482641    0.5300
      4 O4         -9.4742   -0.7047   60.1151 O.2     1  ZINC001579482641   -0.4900
      5 C5         -8.8203    0.9111   58.5611 C.ar    1  ZINC001579482641    0.0900
      6 C6         -8.0508    2.0679   58.4255 C.ar    1  ZINC001579482641   -0.0800
      7 C7         -7.6588    2.4772   57.1640 C.ar    1  ZINC001579482641   -0.1200
      8 C8         -8.0492    1.7144   56.0660 C.ar    1  ZINC001579482641    0.1100
      9 N9         -7.6776    2.0883   54.7817 N.3     1  ZINC001579482641   -0.4600
     10 C10        -8.1592    3.4573   54.4655 C.3     1  ZINC001579482641    0.0400
     11 C11        -7.2471    3.8915   53.2908 C.3     1  ZINC001579482641   -0.1100
     12 C12        -5.8782    3.2831   53.6728 C.3     1  ZINC001579482641   -0.0100
     13 H13        -5.2551    4.0314   54.1625 H       1  ZINC001579482641    0.0900
     14 C14        -5.1842    2.7462   52.4476 C.2     1  ZINC001579482641    0.1800
     15 N15        -5.7524    2.1463   51.4373 N.2     1  ZINC001579482641   -0.2600
     16 N16        -4.8607    1.8219   50.5693 N.2     1  ZINC001579482641   -0.2900
     17 C17        -3.6832    2.2001   50.9865 C.2     1  ZINC001579482641    0.1500
     18 N18        -3.8555    2.8020   52.1880 N.pl3   1  ZINC001579482641   -0.4800
     19 C19        -2.8154    3.3868   53.0381 C.3     1  ZINC001579482641    0.0700
     20 C20        -6.2054    2.1381   54.6493 C.3     1  ZINC001579482641    0.0600
     21 C21        -8.8239    0.5608   56.2758 C.ar    1  ZINC001579482641    0.2300
     22 C22        -9.2473   -0.2617   55.1160 C.2     1  ZINC001579482641    0.2100
     23 N23        -9.8971   -1.4082   55.1588 N.2     1  ZINC001579482641   -0.2600
     24 N24       -10.0780   -1.8043   53.9459 N.pl3   1  ZINC001579482641   -0.2300
     25 N25        -9.5638   -0.9459   53.1361 N.2     1  ZINC001579482641   -0.0500
     26 N26        -9.0488    0.0189   53.8200 N.2     1  ZINC001579482641   -0.2000
     27 N27        -9.1739    0.1997   57.4970 N.ar    1  ZINC001579482641   -0.4000
     28 H28        -9.2755    0.0997   62.5552 H       1  ZINC001579482641    0.0700
     29 H29        -9.9632    1.7107   62.8718 H       1  ZINC001579482641    0.1100
     30 H30       -10.9172    0.4931   61.9912 H       1  ZINC001579482641    0.0700
     31 H31        -7.7646    2.6377   59.2972 H       1  ZINC001579482641    0.1600
     32 H32        -7.0635    3.3688   57.0331 H       1  ZINC001579482641    0.1600
     33 H33        -9.2036    3.4354   54.1540 H       1  ZINC001579482641    0.1000
     34 H34        -8.0258    4.1192   55.3212 H       1  ZINC001579482641    0.0600
     35 H35        -7.6054    3.4744   52.3497 H       1  ZINC001579482641    0.1000
     36 H36        -7.1836    4.9781   53.2330 H       1  ZINC001579482641    0.0800
     37 H37        -2.7458    2.0625   50.4680 H       1  ZINC001579482641    0.2200
     38 H38        -2.6809    4.4366   52.7776 H       1  ZINC001579482641    0.0800
     39 H39        -3.1133    3.3072   54.0835 H       1  ZINC001579482641    0.0900
     40 H40        -1.8781    2.8516   52.8855 H       1  ZINC001579482641    0.0900
     41 H41        -5.7517    2.3371   55.6202 H       1  ZINC001579482641    0.0600
     42 H42        -5.8363    1.1932   54.2506 H       1  ZINC001579482641    0.1000
     43 H43       -10.5304   -2.6215   53.6842 H       1  ZINC001579482641    0.4800
@<TRIPOS>BOND
     1     1     2    1
     2     1    28    1
     3     1    29    1
     4     1    30    1
     5     2     3    1
     6     3     4    2
     7     3     5    1
     8     5    27   ar
     9     5     6   ar
    10     6     7   ar
    11     6    31    1
    12     7     8   ar
    13     7    32    1
    14     8     9    1
    15     8    21   ar
    16     9    20    1
    17     9    10    1
    18    10    11    1
    19    10    33    1
    20    10    34    1
    21    11    12    1
    22    11    35    1
    23    11    36    1
    24    12    13    1
    25    12    14    1
    26    12    20    1
    27    14    18    1
    28    14    15    2
    29    15    16    1
    30    16    17    2
    31    17    18    1
    32    17    37    1
    33    18    19    1
    34    19    38    1
    35    19    39    1
    36    19    40    1
    37    20    41    1
    38    20    42    1
    39    21    22    1
    40    21    27   ar
    41    22    26    1
    42    22    23    2
    43    23    24    1
    44    24    25    1
    45    24    43    1
    46    25    26    2
@<TRIPOS>SUBSTRUCTURE
     1 ZINC001579482641        1 TEMP              0 ****  ****    0 ROOT


##########                                Name:    ZINC000797321835
##########                DOCK_Rotatable_Bonds:                   4
##########                         Heavy_Atoms:                  22
##########                    Molecular_Weight:             381.253
##########                DOCK_Rotatable_Bonds:                   4
##########                       Formal_Charge:           0.0200001
##########                     HBond_Acceptors:                   7
##########                        HBond_Donors:                   1
##########                         Heavy_Atoms:                  22
##########                          Grid_Score:          -26.812765
##########                     Grid_vdw_energy:          -26.423378
##########                      Grid_es_energy:           -0.389388
##########           Internal_energy_repulsive:           10.094338

@<TRIPOS>MOLECULE
ZINC000797321835
 35 37 1 0 0
SMALL
USER_CHARGES


@<TRIPOS>ATOM
      1 C1          5.2242   -2.8268   51.1384 C.3     1  ZINC000797321835    0.1000
      2 N2          4.9317   -1.4613   50.6957 N.am    1  ZINC000797321835   -0.6000
      3 C3          5.5502   -0.3634   51.1636 C.2     1  ZINC000797321835    0.5200
      4 O4          6.4184   -0.3629   52.0105 O.2     1  ZINC000797321835   -0.5200
      5 C5          5.0063    0.8715   50.4797 C.3     1  ZINC000797321835   -0.1500
      6 C6          4.2670    0.3225   49.2375 C.3     1  ZINC000797321835   -0.1200
      7 C7          3.9298   -1.1167   49.6800 C.3     1  ZINC000797321835    0.1200
      8 H8          2.9315   -1.1533   50.1160 H       1  ZINC000797321835    0.1100
      9 C9          4.0204   -2.0579   48.5065 C.2     1  ZINC000797321835    0.4900
     10 O10         3.3181   -3.0458   48.4658 O.2     1  ZINC000797321835   -0.4400
     11 N11         4.8819   -1.8016   47.5022 N.am    1  ZINC000797321835   -0.6500
     12 C12         4.9658   -2.6726   46.4161 C.ar    1  ZINC000797321835    0.3000
     13 C13         4.8381   -2.1815   45.1162 C.ar    1  ZINC000797321835   -0.1400
     14 C14         4.9284   -3.0810   44.0696 C.ar    1  ZINC000797321835   -0.0800
     15 C15         5.1424   -4.4304   44.3804 C.ar    1  ZINC000797321835    0.1100
     16 C16         5.2470   -5.4322   43.3004 C.2     1  ZINC000797321835   -0.1400
     17 C17         4.8013   -5.2661   42.0385 C.2     1  ZINC000797321835   -0.0900
     18 C18         5.0121   -6.3449   41.2058 C.2     1  ZINC000797321835   -0.0900
     19 C19         5.6248   -7.3887   41.7756 C.2     1  ZINC000797321835   -0.2000
     20 Br20        6.0530   -9.0094   40.9003 Br      1  ZINC000797321835    0.0200
     21 S21         5.9787   -7.0237   43.4590 S.3     1  ZINC000797321835    0.1900
     22 N22         5.2515   -4.8049   45.6505 N.ar    1  ZINC000797321835   -0.1900
     23 N23         5.1720   -3.9651   46.6179 N.ar    1  ZINC000797321835   -0.2200
     24 H24         6.0115   -3.2501   50.5146 H       1  ZINC000797321835    0.0700
     25 H25         5.5537   -2.8092   52.1772 H       1  ZINC000797321835    0.0800
     26 H26         4.3251   -3.4370   51.0527 H       1  ZINC000797321835    0.0700
     27 H27         4.3119    1.3964   51.1358 H       1  ZINC000797321835    0.1100
     28 H28         5.8204    1.5308   50.1786 H       1  ZINC000797321835    0.1100
     29 H29         3.3607    0.8946   49.0384 H       1  ZINC000797321835    0.1100
     30 H30         4.9212    0.3152   48.3658 H       1  ZINC000797321835    0.0900
     31 H31         5.4436   -1.0115   47.5347 H       1  ZINC000797321835    0.4200
     32 H32         4.6734   -1.1300   44.9328 H       1  ZINC000797321835    0.1600
     33 H33         4.8363   -2.7536   43.0445 H       1  ZINC000797321835    0.1500
     34 H34         4.3172   -4.3596   41.7064 H       1  ZINC000797321835    0.1600
     35 H35         4.7049   -6.3470   40.1705 H       1  ZINC000797321835    0.1600
@<TRIPOS>BOND
     1     1     2    1
     2     1    24    1
     3     1    25    1
     4     1    26    1
     5     2     7    1
     6     2     3   am
     7     3     4    2
     8     3     5    1
     9     5     6    1
    10     5    27    1
    11     5    28    1
    12     6     7    1
    13     6    29    1
    14     6    30    1
    15     7     8    1
    16     7     9    1
    17     9    10    2
    18     9    11   am
    19    11    12    1
    20    11    31    1
    21    12    23   ar
    22    12    13   ar
    23    13    14   ar
    24    13    32    1
    25    14    15   ar
    26    14    33    1
    27    15    16    1
    28    15    22   ar
    29    16    21    1
    30    16    17    2
    31    17    18    1
    32    17    34    1
    33    18    19    2
    34    18    35    1
    35    19    20    1
    36    19    21    1
    37    22    23   ar
@<TRIPOS>SUBSTRUCTURE
     1 ZINC000797321835        1 TEMP              0 ****  ****    0 ROOT


##########                                Name:    ZINC001009116151
##########                DOCK_Rotatable_Bonds:                   6
##########                         Heavy_Atoms:                  25
##########                    Molecular_Weight:             342.481
##########                DOCK_Rotatable_Bonds:                   6
##########                       Formal_Charge:           0.0600006
##########                     HBond_Acceptors:                   4
##########                        HBond_Donors:                   1
##########                         Heavy_Atoms:                  25
##########                          Grid_Score:          -26.805321
##########                     Grid_vdw_energy:          -27.287054
##########                      Grid_es_energy:            0.481734
##########           Internal_energy_repulsive:           13.780057

@<TRIPOS>MOLECULE
ZINC001009116151
 55 59 1 0 0
SMALL
USER_CHARGES


@<TRIPOS>ATOM
      1 O1         -6.3616    0.2000   62.9379 O.2     1  ZINC001009116151   -0.5400
      2 C2         -7.4252    0.7772   62.8568 C.2     1  ZINC001009116151    0.5200
      3 N3         -8.0928    0.7984   61.6861 N.am    1  ZINC001009116151   -0.7300
      4 C4         -7.5308    0.1295   60.5102 C.3     1  ZINC001009116151    0.1500
      5 C5         -8.6642   -0.2928   59.5733 C.3     1  ZINC001009116151   -0.1200
      6 H6         -8.3523   -0.6707   58.5996 H       1  ZINC001009116151    0.1100
      7 C7         -9.9656    0.5094   59.6344 C.3     1  ZINC001009116151   -0.1700
      8 H8        -10.0270    1.3853   60.2803 H       1  ZINC001009116151    0.1200
      9 C9        -10.9160    0.4482   58.4192 C.3     1  ZINC001009116151    0.1300
     10 N10       -11.7690   -0.7366   58.6712 N.am    1  ZINC001009116151   -0.6200
     11 C11       -13.0896   -0.8693   58.4372 C.2     1  ZINC001009116151    0.5500
     12 O12       -13.7172    0.0537   57.9628 O.2     1  ZINC001009116151   -0.5300
     13 C13       -13.7864   -2.1647   58.7651 C.3     1  ZINC001009116151   -0.1200
     14 C14       -15.2088   -1.9065   59.3139 C.3     1  ZINC001009116151   -0.0900
     15 C15       -16.1080   -1.9840   58.1020 C.2     1  ZINC001009116151   -0.1800
     16 C16       -15.5007   -2.5636   57.1025 C.2     1  ZINC001009116151   -0.1500
     17 C17       -14.0953   -2.9693   57.4812 C.3     1  ZINC001009116151   -0.0900
     18 C18       -10.8409   -1.7424   59.2385 C.3     1  ZINC001009116151    0.1200
     19 C19        -9.9070   -0.9201   60.2080 C.3     1  ZINC001009116151   -0.1600
     20 H20        -9.9621   -1.1443   61.2732 H       1  ZINC001009116151    0.1300
     21 C21        -8.0034    1.4653   64.0665 C.3     1  ZINC001009116151   -0.0700
     22 C22        -7.5763    0.7177   65.3312 C.3     1  ZINC001009116151   -0.1100
     23 C23        -8.1634    1.4162   66.5593 C.3     1  ZINC001009116151   -0.1100
     24 C24        -8.9817    2.6296   66.1133 C.3     1  ZINC001009116151   -0.0900
     25 C25        -8.0776    3.6040   65.3558 C.3     1  ZINC001009116151   -0.1100
     26 C26        -7.4906    2.9055   64.1277 C.3     1  ZINC001009116151   -0.0900
     27 C27       -10.1172    2.1700   65.1967 C.3     1  ZINC001009116151   -0.1100
     28 C28        -9.5302    1.4713   63.9685 C.3     1  ZINC001009116151   -0.1000
     29 H29        -8.9453    1.2567   61.6222 H       1  ZINC001009116151    0.4000
     30 H30        -6.8631    0.8142   59.9872 H       1  ZINC001009116151    0.0800
     31 H31        -6.9727   -0.7520   60.8257 H       1  ZINC001009116151    0.0700
     32 H32       -11.5249    1.3507   58.3671 H       1  ZINC001009116151    0.0900
     33 H33       -10.3476    0.3184   57.4982 H       1  ZINC001009116151    0.0800
     34 H34       -13.1975   -2.7568   59.4656 H       1  ZINC001009116151    0.1100
     35 H35       -15.4813   -2.6738   60.0385 H       1  ZINC001009116151    0.0900
     36 H36       -15.2670   -0.9169   59.7672 H       1  ZINC001009116151    0.0800
     37 H37       -17.1203   -1.6093   58.0674 H       1  ZINC001009116151    0.1300
     38 H38       -15.9446   -2.7314   56.1323 H       1  ZINC001009116151    0.1300
     39 H39       -13.3964   -2.7023   56.6884 H       1  ZINC001009116151    0.0900
     40 H40       -14.0505   -4.0394   57.6835 H       1  ZINC001009116151    0.0900
     41 H41       -11.3933   -2.4926   59.8045 H       1  ZINC001009116151    0.0900
     42 H42       -10.2608   -2.2142   58.4455 H       1  ZINC001009116151    0.0800
     43 H43        -7.9418   -0.3083   65.2875 H       1  ZINC001009116151    0.0700
     44 H44        -6.4886    0.7133   65.4008 H       1  ZINC001009116151    0.0700
     45 H45        -8.8076    0.7220   67.0990 H       1  ZINC001009116151    0.0700
     46 H46        -7.3544    1.7438   67.2123 H       1  ZINC001009116151    0.0700
     47 H47        -9.3999    3.1273   66.9883 H       1  ZINC001009116151    0.0700
     48 H48        -8.6606    4.4685   65.0381 H       1  ZINC001009116151    0.0700
     49 H49        -7.2685    3.9316   66.0088 H       1  ZINC001009116151    0.0700
     50 H50        -6.4028    2.9012   64.1974 H       1  ZINC001009116151    0.0700
     51 H51        -7.7947    3.4381   63.2266 H       1  ZINC001009116151    0.0700
     52 H52       -10.7614    1.4757   65.7363 H       1  ZINC001009116151    0.0700
     53 H53       -10.7002    3.0344   64.8789 H       1  ZINC001009116151    0.0700
     54 H54        -9.8345    2.0040   63.0675 H       1  ZINC001009116151    0.0700
     55 H55        -9.8956    0.4453   63.9249 H       1  ZINC001009116151    0.0700
@<TRIPOS>BOND
     1     1     2    2
     2     2     3   am
     3     2    21    1
     4     3     4    1
     5     3    29    1
     6     4     5    1
     7     4    30    1
     8     4    31    1
     9     5     6    1
    10     5    19    1
    11     5     7    1
    12     7     8    1
    13     7    19    1
    14     7     9    1
    15     9    10    1
    16     9    32    1
    17     9    33    1
    18    10    11   am
    19    10    18    1
    20    11    12    2
    21    11    13    1
    22    13    17    1
    23    13    14    1
    24    13    34    1
    25    14    15    1
    26    14    35    1
    27    14    36    1
    28    15    16    2
    29    15    37    1
    30    16    17    1
    31    16    38    1
    32    17    39    1
    33    17    40    1
    34    18    19    1
    35    18    41    1
    36    18    42    1
    37    19    20    1
    38    21    26    1
    39    21    28    1
    40    21    22    1
    41    22    23    1
    42    22    43    1
    43    22    44    1
    44    23    24    1
    45    23    45    1
    46    23    46    1
    47    24    25    1
    48    24    27    1
    49    24    47    1
    50    25    26    1
    51    25    48    1
    52    25    49    1
    53    26    50    1
    54    26    51    1
    55    27    28    1
    56    27    52    1
    57    27    53    1
    58    28    54    1
    59    28    55    1
@<TRIPOS>SUBSTRUCTURE
     1 ZINC001009116151        1 TEMP              0 ****  ****    0 ROOT


##########                                Name:    ZINC000866034032
##########                DOCK_Rotatable_Bonds:                   4
##########                         Heavy_Atoms:                  23
##########                    Molecular_Weight:             383.242
##########                DOCK_Rotatable_Bonds:                   4
##########                       Formal_Charge:           0.0199999
##########                     HBond_Acceptors:                   6
##########                        HBond_Donors:                   1
##########                         Heavy_Atoms:                  23
##########                          Grid_Score:          -26.804802
##########                     Grid_vdw_energy:          -27.409895
##########                      Grid_es_energy:            0.605093
##########           Internal_energy_repulsive:           12.322694

@<TRIPOS>MOLECULE
ZINC000866034032
 42 44 1 0 0
SMALL
USER_CHARGES


@<TRIPOS>ATOM
      1 C1         -9.9657   -0.7368   60.3931 C.3     1  ZINC000866034032   -0.1300
      2 C2        -10.8122   -0.4982   59.1412 C.3     1  ZINC000866034032   -0.0800
      3 C3        -10.6755    0.9247   58.5956 C.3     1  ZINC000866034032   -0.1300
      4 C4        -10.6435   -1.5866   58.0699 C.3     1  ZINC000866034032    0.1400
      5 H5         -9.6920   -2.1146   58.1318 H       1  ZINC000866034032    0.1100
      6 N6        -10.9490   -1.1247   56.7136 N.am    1  ZINC000866034032   -0.7000
      7 C7        -10.2465   -1.5992   55.6659 C.2     1  ZINC000866034032    0.5100
      8 O8         -9.3604   -2.4074   55.8461 O.2     1  ZINC000866034032   -0.5300
      9 C9        -10.5618   -1.1255   54.2705 C.3     1  ZINC000866034032   -0.1100
     10 C10        -9.5657   -0.0715   53.8606 C.ar    1  ZINC000866034032   -0.0500
     11 C11        -9.8512    1.2655   54.0648 C.ar    1  ZINC000866034032   -0.0500
     12 C12        -8.9380    2.2327   53.6886 C.ar    1  ZINC000866034032   -0.0900
     13 C13        -7.7383    1.8624   53.1084 C.ar    1  ZINC000866034032   -0.0500
     14 Br14       -6.4885    3.1850   52.5941 Br      1  ZINC000866034032    0.0200
     15 C15        -7.4529    0.5242   52.9046 C.ar    1  ZINC000866034032   -0.0200
     16 N16        -6.1692    0.1274   52.2841 N.pl3   1  ZINC000866034032    0.0200
     17 O17        -5.9180   -1.0510   52.1049 O.2     1  ZINC000866034032   -0.1600
     18 O18        -5.3639    0.9790   51.9528 O.2     1  ZINC000866034032   -0.1300
     19 C19        -8.3642   -0.4423   53.2858 C.ar    1  ZINC000866034032   -0.0300
     20 C20       -11.8061   -2.3358   58.7414 C.3     1  ZINC000866034032   -0.1500
     21 H21       -11.5337   -3.0947   59.4747 H       1  ZINC000866034032    0.1200
     22 C22       -12.9110   -2.7476   57.7431 C.3     1  ZINC000866034032   -0.1400
     23 C23       -13.9206   -1.5800   57.7950 C.3     1  ZINC000866034032    0.0500
     24 O24       -13.1497   -0.4455   58.2463 O.3     1  ZINC000866034032   -0.3600
     25 C25       -12.2691   -0.9613   59.2885 C.3     1  ZINC000866034032    0.0600
     26 H26       -12.6900   -0.9465   60.2938 H       1  ZINC000866034032    0.1000
     27 H27       -10.2163   -1.7072   60.8217 H       1  ZINC000866034032    0.0600
     28 H28        -8.9091   -0.7194   60.1260 H       1  ZINC000866034032    0.0700
     29 H29       -10.1687    0.0463   61.1237 H       1  ZINC000866034032    0.0700
     30 H30        -9.6781    1.0591   58.1771 H       1  ZINC000866034032    0.0600
     31 H31       -11.4211    1.0887   57.8176 H       1  ZINC000866034032    0.0600
     32 H32       -10.8300    1.6400   59.4035 H       1  ZINC000866034032    0.0600
     33 H33       -11.6570   -0.4774   56.5695 H       1  ZINC000866034032    0.4100
     34 H34       -10.5054   -1.9668   53.5797 H       1  ZINC000866034032    0.1100
     35 H35       -11.5668   -0.7039   54.2483 H       1  ZINC000866034032    0.1200
     36 H36       -10.7880    1.5545   54.5179 H       1  ZINC000866034032    0.1500
     37 H37        -9.1613    3.2773   53.8475 H       1  ZINC000866034032    0.1600
     38 H38        -8.1413   -1.4871   53.1272 H       1  ZINC000866034032    0.1600
     39 H39       -12.4990   -2.8518   56.7394 H       1  ZINC000866034032    0.0800
     40 H40       -13.3851   -3.6766   58.0603 H       1  ZINC000866034032    0.0800
     41 H41       -14.3316   -1.3893   56.8036 H       1  ZINC000866034032    0.0900
     42 H42       -14.7202   -1.8009   58.5021 H       1  ZINC000866034032    0.0600
@<TRIPOS>BOND
     1     1     2    1
     2     1    27    1
     3     1    28    1
     4     1    29    1
     5     2    25    1
     6     2     3    1
     7     2     4    1
     8     3    30    1
     9     3    31    1
    10     3    32    1
    11     4     5    1
    12     4     6    1
    13     4    20    1
    14     6     7   am
    15     6    33    1
    16     7     8    2
    17     7     9    1
    18     9    10    1
    19     9    34    1
    20     9    35    1
    21    10    19   ar
    22    10    11   ar
    23    11    12   ar
    24    11    36    1
    25    12    13   ar
    26    12    37    1
    27    13    14    1
    28    13    15   ar
    29    15    16    1
    30    15    19   ar
    31    16    17    2
    32    16    18    2
    33    19    38    1
    34    20    21    1
    35    20    25    1
    36    20    22    1
    37    22    23    1
    38    22    39    1
    39    22    40    1
    40    23    24    1
    41    23    41    1
    42    23    42    1
    43    24    25    1
    44    25    26    1
@<TRIPOS>SUBSTRUCTURE
     1 ZINC000866034032        1 TEMP              0 ****  ****    0 ROOT


##########                                Name:    ZINC000132775118
##########                DOCK_Rotatable_Bonds:                   5
##########                         Heavy_Atoms:                  27
##########                    Molecular_Weight:             376.499
##########                DOCK_Rotatable_Bonds:                   5
##########                       Formal_Charge:        -4.76837e-07
##########                     HBond_Acceptors:                   7
##########                        HBond_Donors:                   1
##########                         Heavy_Atoms:                  27
##########                          Grid_Score:          -26.802416
##########                     Grid_vdw_energy:          -25.443609
##########                      Grid_es_energy:           -1.358807
##########           Internal_energy_repulsive:           22.182247

@<TRIPOS>MOLECULE
ZINC000132775118
 59 62 1 0 0
SMALL
USER_CHARGES


@<TRIPOS>ATOM
      1 O1        -11.2443    2.4269   55.4344 O.2     1  ZINC000132775118   -0.5200
      2 C2        -10.0754    2.3667   55.7520 C.2     1  ZINC000132775118    0.5200
      3 C3         -9.0127    2.8830   54.8165 C.3     1  ZINC000132775118    0.0300
      4 N4         -8.2336    1.7545   54.2900 N.3     1  ZINC000132775118   -0.5100
      5 C5         -9.1136    0.6434   53.8993 C.3     1  ZINC000132775118    0.0300
      6 C6         -8.3388   -0.4131   53.1657 C.2     1  ZINC000132775118    0.5300
      7 O7         -8.8430   -1.5076   53.0287 O.2     1  ZINC000132775118   -0.5500
      8 N8         -7.1177   -0.2052   52.6546 N.am    1  ZINC000132775118   -0.7200
      9 C9         -6.4123    1.0565   52.8324 C.3     1  ZINC000132775118    0.1500
     10 H10        -5.7188    0.9596   53.6677 H       1  ZINC000132775118    0.0800
     11 C11        -5.6290    1.4439   51.5802 C.3     1  ZINC000132775118   -0.1300
     12 C12        -4.8635    2.7420   51.8566 C.3     1  ZINC000132775118   -0.1200
     13 C13        -5.8420    3.8562   52.2290 C.3     1  ZINC000132775118   -0.1200
     14 C14        -6.6483    3.4528   53.4677 C.3     1  ZINC000132775118   -0.1200
     15 C15        -7.4146    2.1695   53.1455 C.3     1  ZINC000132775118    0.0700
     16 H16        -8.0660    2.3424   52.2889 H       1  ZINC000132775118    0.0600
     17 N17        -9.7272    1.8432   56.9442 N.am    1  ZINC000132775118   -0.6200
     18 C18        -8.3163    1.7745   57.3483 C.3     1  ZINC000132775118    0.1100
     19 C19        -8.1626    2.4429   58.7181 C.3     1  ZINC000132775118   -0.1200
     20 C20        -9.1324    1.7951   59.7089 C.3     1  ZINC000132775118   -0.1000
     21 C21        -8.9600    2.4271   61.0662 C.2     1  ZINC000132775118    0.5300
     22 O22        -9.5895    3.4224   61.3560 O.2     1  ZINC000132775118   -0.5300
     23 N23        -8.1064    1.8861   61.9579 N.am    1  ZINC000132775118   -0.6200
     24 C24        -7.2798    0.6905   61.7363 C.3     1  ZINC000132775118    0.1000
     25 C25        -6.4872    0.4343   63.0354 C.3     1  ZINC000132775118   -0.1300
     26 C26        -7.3339    1.1672   64.1093 C.3     1  ZINC000132775118   -0.1300
     27 C27        -7.8420    2.3988   63.3146 C.3     1  ZINC000132775118    0.1000
     28 C28       -10.5704    2.0036   59.2284 C.3     1  ZINC000132775118   -0.1200
     29 C29       -10.7518    1.3358   57.8669 C.3     1  ZINC000132775118    0.1200
     30 H30        -9.4836    3.4162   53.9907 H       1  ZINC000132775118    0.0700
     31 H31        -8.3514    3.5607   55.3566 H       1  ZINC000132775118    0.1200
     32 H32        -9.5591    0.2065   54.7931 H       1  ZINC000132775118    0.1300
     33 H33        -9.9052    1.0223   53.2528 H       1  ZINC000132775118    0.0700
     34 H34        -6.6908   -0.9163   52.1515 H       1  ZINC000132775118    0.4000
     35 H35        -4.9243    0.6507   51.3303 H       1  ZINC000132775118    0.0800
     36 H36        -6.3191    1.5966   50.7504 H       1  ZINC000132775118    0.0700
     37 H37        -4.1663    2.5829   52.6793 H       1  ZINC000132775118    0.0700
     38 H38        -4.3080    3.0315   50.9646 H       1  ZINC000132775118    0.0700
     39 H39        -5.2864    4.7698   52.4408 H       1  ZINC000132775118    0.0700
     40 H40        -6.5225    4.0333   51.3961 H       1  ZINC000132775118    0.0600
     41 H41        -5.9713    3.2851   54.3053 H       1  ZINC000132775118    0.0800
     42 H42        -7.3532    4.2454   53.7185 H       1  ZINC000132775118    0.0700
     43 H43        -8.0052    0.7319   57.4134 H       1  ZINC000132775118    0.0800
     44 H44        -7.7006    2.2967   56.6158 H       1  ZINC000132775118    0.0900
     45 H45        -7.1401    2.3143   59.0729 H       1  ZINC000132775118    0.0800
     46 H46        -8.3872    3.5060   58.6314 H       1  ZINC000132775118    0.0800
     47 H47        -8.9234    0.7274   59.7763 H       1  ZINC000132775118    0.0900
     48 H48        -7.9177   -0.1655   61.5162 H       1  ZINC000132775118    0.0700
     49 H49        -6.5907    0.8643   60.9098 H       1  ZINC000132775118    0.0700
     50 H50        -6.4327   -0.6330   63.2496 H       1  ZINC000132775118    0.0800
     51 H51        -5.4890    0.8671   62.9699 H       1  ZINC000132775118    0.0800
     52 H52        -8.1636    0.5448   64.4444 H       1  ZINC000132775118    0.0800
     53 H53        -6.7145    1.4762   64.9513 H       1  ZINC000132775118    0.0900
     54 H54        -7.0781    3.1759   63.2901 H       1  ZINC000132775118    0.0700
     55 H55        -8.7611    2.7829   63.7571 H       1  ZINC000132775118    0.0800
     56 H56       -11.2616    1.5623   59.9465 H       1  ZINC000132775118    0.0800
     57 H57       -10.7723    3.0708   59.1370 H       1  ZINC000132775118    0.0800
     58 H58       -11.7432    1.5655   57.4764 H       1  ZINC000132775118    0.1000
     59 H59       -10.6390    0.2567   57.9713 H       1  ZINC000132775118    0.0700
@<TRIPOS>BOND
     1     1     2    2
     2     2     3    1
     3     2    17   am
     4     3     4    1
     5     3    30    1
     6     3    31    1
     7     4    15    1
     8     4     5    1
     9     5     6    1
    10     5    32    1
    11     5    33    1
    12     6     7    2
    13     6     8   am
    14     8     9    1
    15     8    34    1
    16     9    10    1
    17     9    15    1
    18     9    11    1
    19    11    12    1
    20    11    35    1
    21    11    36    1
    22    12    13    1
    23    12    37    1
    24    12    38    1
    25    13    14    1
    26    13    39    1
    27    13    40    1
    28    14    15    1
    29    14    41    1
    30    14    42    1
    31    15    16    1
    32    17    29    1
    33    17    18    1
    34    18    19    1
    35    18    43    1
    36    18    44    1
    37    19    20    1
    38    19    45    1
    39    19    46    1
    40    20    21    1
    41    20    28    1
    42    20    47    1
    43    21    22    2
    44    21    23   am
    45    23    27    1
    46    23    24    1
    47    24    25    1
    48    24    48    1
    49    24    49    1
    50    25    26    1
    51    25    50    1
    52    25    51    1
    53    26    27    1
    54    26    52    1
    55    26    53    1
    56    27    54    1
    57    27    55    1
    58    28    29    1
    59    28    56    1
    60    28    57    1
    61    29    58    1
    62    29    59    1
@<TRIPOS>SUBSTRUCTURE
     1 ZINC000132775118        1 TEMP              0 ****  ****    0 ROOT


##########                                Name:    ZINC000286156371
##########                DOCK_Rotatable_Bonds:                   7
##########                         Heavy_Atoms:                  25
##########                    Molecular_Weight:             350.418
##########                DOCK_Rotatable_Bonds:                   7
##########                       Formal_Charge:          0.00999908
##########                     HBond_Acceptors:                   8
##########                        HBond_Donors:                   2
##########                         Heavy_Atoms:                  25
##########                          Grid_Score:          -26.797020
##########                     Grid_vdw_energy:          -26.489216
##########                      Grid_es_energy:           -0.307804
##########           Internal_energy_repulsive:           31.249817

@<TRIPOS>MOLECULE
ZINC000286156371
 51 53 1 0 0
SMALL
USER_CHARGES


@<TRIPOS>ATOM
      1 C1        -11.2578   -1.2735   53.4602 C.3     1  <0>        -0.1800
      2 C2        -10.9486   -0.7492   54.8640 C.3     1  <0>         0.1400
      3 C3         -9.4665   -0.9673   55.1749 C.3     1  <0>        -0.1800
      4 C4        -11.2694    0.7452   54.9322 C.3     1  <0>        -0.1400
      5 O5        -11.7572   -1.4628   55.8361 O.3     1  <0>        -0.3600
      6 C6        -13.0874   -1.2597   55.7917 C.2     1  <0>         0.6800
      7 O7        -13.5917   -0.7503   54.8105 O.2     1  <0>        -0.5600
      8 N8        -13.8596   -1.6214   56.8354 N.am    1  <0>        -0.5800
      9 C9        -15.3223   -1.4577   56.9194 C.3     1  <0>         0.0700
     10 C10       -15.7833   -2.5287   57.9393 C.3     1  <0>         0.0900
     11 H11       -16.7241   -2.2416   58.4089 H       1  <0>         0.0900
     12 O12       -15.8936   -3.8118   57.3200 O.3     1  <0>        -0.5500
     13 C13       -14.6193   -2.5035   58.9650 C.3     1  <0>        -0.1200
     14 C14       -13.3835   -2.2505   58.0761 C.3     1  <0>         0.1500
     15 H15       -12.8883   -3.1953   57.8522 H       1  <0>         0.1100
     16 C16       -12.4261   -1.3246   58.7811 C.2     1  <0>         0.5200
     17 O17       -12.7372   -0.1699   58.9833 O.2     1  <0>        -0.4900
     18 N18       -11.2241   -1.7797   59.1868 N.am    1  <0>        -0.6300
     19 C19       -10.3342   -0.9191   59.8440 C.2     1  <0>         0.3000
     20 N20       -10.2707   -0.7190   61.1410 N.2     1  <0>        -0.3200
     21 N21        -9.2542    0.2064   61.3881 N.pl3   1  <0>        -0.3600
     22 C22        -8.8217    0.7300   62.6875 C.3     1  <0>         0.1400
     23 C23        -7.4337    1.3595   62.5289 C.3     1  <0>        -0.1400
     24 C24        -7.4449    2.3344   61.3478 C.3     1  <0>        -0.1300
     25 C25        -7.5773    1.5419   60.0407 C.3     1  <0>        -0.0600
     26 C26        -8.7096    0.5572   60.1999 C.2     1  <0>         0.0900
     27 C27        -9.3503   -0.1242   59.2305 C.2     1  <0>        -0.2600
     28 H28       -11.0292   -2.3382   53.4115 H       1  <0>         0.0900
     29 H29       -12.3136   -1.1181   53.2388 H       1  <0>         0.0600
     30 H30       -10.6508   -0.7378   52.7304 H       1  <0>         0.0700
     31 H31        -8.8595   -0.4316   54.4450 H       1  <0>         0.0700
     32 H32        -9.2462   -0.5937   56.1748 H       1  <0>         0.0600
     33 H33        -9.2379   -2.0320   55.1262 H       1  <0>         0.0900
     34 H34       -12.3253    0.9007   54.7108 H       1  <0>         0.0700
     35 H35       -11.0492    1.1188   55.9323 H       1  <0>         0.0700
     36 H36       -10.6624    1.2809   54.2024 H       1  <0>         0.0800
     37 H37       -15.5722   -0.4594   57.2786 H       1  <0>         0.0800
     38 H38       -15.7807   -1.6377   55.9470 H       1  <0>         0.0900
     39 H39       -16.4615   -3.8232   56.5373 H       1  <0>         0.3900
     40 H40       -14.7551   -1.6943   59.6826 H       1  <0>         0.1000
     41 H41       -14.5345   -3.4629   59.4755 H       1  <0>         0.1100
     42 H42       -10.9748   -2.7029   59.0240 H       1  <0>         0.4200
     43 H43        -9.5286    1.4854   63.0305 H       1  <0>         0.0800
     44 H44        -8.7734   -0.0836   63.4113 H       1  <0>         0.0900
     45 H45        -7.1723    1.8967   63.4406 H       1  <0>         0.0900
     46 H46        -6.6983    0.5760   62.3459 H       1  <0>         0.0800
     47 H47        -8.2890    3.0169   61.4470 H       1  <0>         0.0700
     48 H48        -6.5151    2.9032   61.3362 H       1  <0>         0.0800
     49 H49        -7.7951    2.2229   59.2180 H       1  <0>         0.0900
     50 H50        -6.6495    1.0062   59.8398 H       1  <0>         0.0900
     51 H51        -9.1461   -0.0681   58.1715 H       1  <0>         0.1700
@<TRIPOS>BOND
     1     1     2    1
     2     1    28    1
     3     1    29    1
     4     1    30    1
     5     2     3    1
     6     2     4    1
     7     2     5    1
     8     3    31    1
     9     3    32    1
    10     3    33    1
    11     4    34    1
    12     4    35    1
    13     4    36    1
    14     5     6    1
    15     6     7    2
    16     6     8   am
    17     8    14    1
    18     8     9    1
    19     9    10    1
    20     9    37    1
    21     9    38    1
    22    10    11    1
    23    10    12    1
    24    10    13    1
    25    12    39    1
    26    13    14    1
    27    13    40    1
    28    13    41    1
    29    14    15    1
    30    14    16    1
    31    16    17    2
    32    16    18   am
    33    18    19    1
    34    18    42    1
    35    19    27    1
    36    19    20    2
    37    20    21    1
    38    21    26    1
    39    21    22    1
    40    22    23    1
    41    22    43    1
    42    22    44    1
    43    23    24    1
    44    23    45    1
    45    23    46    1
    46    24    25    1
    47    24    47    1
    48    24    48    1
    49    25    26    1
    50    25    49    1
    51    25    50    1
    52    26    27    2
    53    27    51    1
@<TRIPOS>SUBSTRUCTURE
     1 <0>         1 TEMP              0 ****  ****    0 ROOT


##########                                Name:    ZINC000768148687
##########                DOCK_Rotatable_Bonds:                   8
##########                         Heavy_Atoms:                  25
##########                    Molecular_Weight:             371.307
##########                DOCK_Rotatable_Bonds:                   8
##########                       Formal_Charge:         2.98023e-08
##########                     HBond_Acceptors:                  11
##########                        HBond_Donors:                   0
##########                         Heavy_Atoms:                  25
##########                          Grid_Score:          -26.796213
##########                     Grid_vdw_energy:          -25.147053
##########                      Grid_es_energy:           -1.649160
##########           Internal_energy_repulsive:            9.913025

@<TRIPOS>MOLECULE
ZINC000768148687
 43 44 1 0 0
SMALL
USER_CHARGES


@<TRIPOS>ATOM
      1 C1         -7.0306    0.6888   64.4929 C.3     1  ZINC000768148687   -0.1800
      2 C2         -6.6757    0.9593   63.0295 C.3     1  ZINC000768148687    0.1100
      3 N3         -7.9048    1.0515   62.2378 N.pl3   1  ZINC000768148687   -0.3100
      4 N4         -9.1585    1.4467   62.7176 N.2     1  ZINC000768148687   -0.2000
      5 C5        -10.0172    1.4112   61.7365 C.2     1  ZINC000768148687    0.0200
      6 C6        -11.4799    1.7623   61.8267 C.3     1  ZINC000768148687    0.5500
      7 F7        -11.8599    2.4740   60.6837 F       1  ZINC000768148687   -0.1600
      8 F8        -12.2364    0.5890   61.9183 F       1  ZINC000768148687   -0.1600
      9 F9        -11.7015    2.5498   62.9615 F       1  ZINC000768148687   -0.1500
     10 C10        -9.3353    0.9855   60.5740 C.2     1  ZINC000768148687   -0.1800
     11 C11        -9.9198    0.8041   59.2342 C.2     1  ZINC000768148687    0.5300
     12 O12        -9.8819    1.7115   58.4268 O.2     1  ZINC000768148687   -0.4700
     13 O13       -10.4966   -0.3681   58.9038 O.3     1  ZINC000768148687   -0.3400
     14 C14       -11.2638   -0.4010   57.6715 C.3     1  ZINC000768148687    0.0200
     15 C15       -11.8859   -1.7876   57.4950 C.3     1  ZINC000768148687    0.0600
     16 N16       -13.2015   -1.8208   58.1479 N.3     1  ZINC000768148687   -0.5300
     17 C17       -13.0626   -1.8958   59.6095 C.3     1  ZINC000768148687    0.0100
     18 C18       -14.4524   -1.8681   60.2509 C.3     1  ZINC000768148687    0.0600
     19 O19       -15.2358   -2.9432   59.7257 O.3     1  ZINC000768148687   -0.3800
     20 C20       -15.3920   -2.9010   58.3048 C.3     1  ZINC000768148687    0.0600
     21 C21       -14.0117   -2.9392   57.6436 C.3     1  ZINC000768148687    0.0100
     22 C22        -8.0167    0.7769   60.9287 C.2     1  ZINC000768148687    0.0600
     23 C23        -6.9096    0.3160   60.0161 C.3     1  ZINC000768148687    0.3400
     24 F24        -7.1561   -1.0005   59.6120 F       1  ZINC000768148687   -0.1700
     25 F25        -6.8559    1.1466   58.8917 F       1  ZINC000768148687   -0.1800
     26 H26        -6.1161    0.6202   65.0819 H       1  ZINC000768148687    0.0900
     27 H27        -7.6477    1.5028   64.8736 H       1  ZINC000768148687    0.0700
     28 H28        -7.5810   -0.2491   64.5659 H       1  ZINC000768148687    0.0700
     29 H29        -6.1253    1.8973   62.9564 H       1  ZINC000768148687    0.1100
     30 H30        -6.0586    0.1454   62.6488 H       1  ZINC000768148687    0.1200
     31 H31       -12.0537    0.3487   57.7152 H       1  ZINC000768148687    0.0800
     32 H32       -10.6066   -0.1877   56.8285 H       1  ZINC000768148687    0.0800
     33 H33       -12.0022   -2.0011   56.4325 H       1  ZINC000768148687    0.1100
     34 H34       -11.2368   -2.5373   57.9473 H       1  ZINC000768148687    0.0900
     35 H35       -12.5553   -2.8218   59.8799 H       1  ZINC000768148687    0.0500
     36 H36       -12.4811   -1.0446   59.9639 H       1  ZINC000768148687    0.0900
     37 H37       -14.3572   -1.9808   61.3309 H       1  ZINC000768148687    0.1000
     38 H38       -14.9387   -0.9191   60.0249 H       1  ZINC000768148687    0.0600
     39 H39       -15.9763   -3.7609   57.9772 H       1  ZINC000768148687    0.1000
     40 H40       -15.9056   -1.9822   58.0221 H       1  ZINC000768148687    0.0600
     41 H41       -14.1231   -2.8498   56.5630 H       1  ZINC000768148687    0.0800
     42 H42       -13.5196   -3.8820   57.8826 H       1  ZINC000768148687    0.0700
     43 H43        -5.9586    0.3611   60.5469 H       1  ZINC000768148687    0.1500
@<TRIPOS>BOND
     1     1     2    1
     2     1    26    1
     3     1    27    1
     4     1    28    1
     5     2     3    1
     6     2    29    1
     7     2    30    1
     8     3    22    1
     9     3     4    1
    10     4     5    2
    11     5     6    1
    12     5    10    1
    13     6     7    1
    14     6     8    1
    15     6     9    1
    16    10    11    1
    17    10    22    2
    18    11    12    2
    19    11    13    1
    20    13    14    1
    21    14    15    1
    22    14    31    1
    23    14    32    1
    24    15    16    1
    25    15    33    1
    26    15    34    1
    27    16    21    1
    28    16    17    1
    29    17    18    1
    30    17    35    1
    31    17    36    1
    32    18    19    1
    33    18    37    1
    34    18    38    1
    35    19    20    1
    36    20    21    1
    37    20    39    1
    38    20    40    1
    39    21    41    1
    40    21    42    1
    41    22    23    1
    42    23    24    1
    43    23    25    1
    44    23    43    1
@<TRIPOS>SUBSTRUCTURE
     1 ZINC000768148687        1 TEMP              0 ****  ****    0 ROOT


##########                                Name:    ZINC000938043669
##########                DOCK_Rotatable_Bonds:                   7
##########                         Heavy_Atoms:                  27
##########                    Molecular_Weight:             372.439
##########                DOCK_Rotatable_Bonds:                   7
##########                       Formal_Charge:           0.0499999
##########                     HBond_Acceptors:                   6
##########                        HBond_Donors:                   1
##########                         Heavy_Atoms:                  27
##########                          Grid_Score:          -26.793993
##########                     Grid_vdw_energy:          -25.358286
##########                      Grid_es_energy:           -1.435707
##########           Internal_energy_repulsive:           14.489672

@<TRIPOS>MOLECULE
ZINC000938043669
 52 55 1 0 0
SMALL
USER_CHARGES


@<TRIPOS>ATOM
      1 O1        -10.8176   -3.1002   56.4038 O.2     1  ZINC000938043669   -0.5000
      2 C2        -10.6299   -1.9372   56.1155 C.2     1  ZINC000938043669    0.5300
      3 C3        -11.0299   -1.4240   54.7562 C.3     1  ZINC000938043669    0.0500
      4 O4        -12.4016   -1.0244   54.7825 O.3     1  ZINC000938043669   -0.2800
      5 C5        -12.9721   -0.6974   53.5926 C.ar    1  ZINC000938043669    0.0900
      6 C6        -12.2384   -0.7946   52.4206 C.ar    1  ZINC000938043669   -0.1800
      7 C7        -12.8206   -0.4622   51.2118 C.ar    1  ZINC000938043669   -0.0900
      8 C8        -14.1337   -0.0328   51.1698 C.ar    1  ZINC000938043669   -0.1300
      9 C9        -14.8693    0.0661   52.3368 C.ar    1  ZINC000938043669   -0.1100
     10 C10       -14.2938   -0.2706   53.5483 C.ar    1  ZINC000938043669    0.0800
     11 F11       -15.0121   -0.1742   54.6884 F       1  ZINC000938043669   -0.1300
     12 N12       -10.0689   -1.1024   57.0127 N.am    1  ZINC000938043669   -0.6200
     13 C13        -9.7903    0.3249   56.7975 C.3     1  ZINC000938043669    0.1000
     14 C14        -9.1745    0.8733   58.1019 C.3     1  ZINC000938043669   -0.1400
     15 C15        -9.6620   -0.1414   59.1698 C.3     1  ZINC000938043669    0.1300
     16 H16       -10.6736    0.0947   59.4999 H       1  ZINC000938043669    0.1100
     17 N17        -8.7397   -0.1909   60.3069 N.am    1  ZINC000938043669   -0.7200
     18 C18        -8.9652    0.5771   61.3913 C.2     1  ZINC000938043669    0.5200
     19 O19        -9.9324    1.3079   61.4264 O.2     1  ZINC000938043669   -0.5200
     20 C20        -8.0155    0.5276   62.5603 C.3     1  ZINC000938043669   -0.1000
     21 H21        -7.2772   -0.2570   62.3953 H       1  ZINC000938043669    0.1000
     22 C22        -8.7986    0.2294   63.8410 C.3     1  ZINC000938043669   -0.1100
     23 C23        -8.6112    1.3810   64.8370 C.3     1  ZINC000938043669   -0.0600
     24 H24        -9.2025    1.2133   65.7373 H       1  ZINC000938043669    0.0800
     25 C25        -9.0339    2.6688   64.1458 C.2     1  ZINC000938043669   -0.1800
     26 C26        -8.3528    2.9281   63.0321 C.2     1  ZINC000938043669   -0.1300
     27 C27        -7.3031    1.8792   62.6977 C.3     1  ZINC000938043669   -0.0400
     28 H28        -6.7721    2.1418   61.7826 H       1  ZINC000938043669    0.0900
     29 C29        -6.3335    1.7950   63.8845 C.3     1  ZINC000938043669   -0.1200
     30 C30        -7.1182    1.4854   65.1782 C.3     1  ZINC000938043669   -0.1100
     31 C31        -9.6388   -1.4681   58.3745 C.3     1  ZINC000938043669    0.1000
     32 H32       -10.4073   -0.5688   54.4930 H       1  ZINC000938043669    0.1000
     33 H33       -10.8954   -2.2127   54.0159 H       1  ZINC000938043669    0.1000
     34 H34       -11.2122   -1.1297   52.4519 H       1  ZINC000938043669    0.1400
     35 H35       -12.2485   -0.5377   50.2988 H       1  ZINC000938043669    0.1300
     36 H36       -14.5861    0.2263   50.2239 H       1  ZINC000938043669    0.1400
     37 H37       -15.8950    0.4023   52.3013 H       1  ZINC000938043669    0.1500
     38 H38        -9.0847    0.4451   55.9754 H       1  ZINC000938043669    0.0800
     39 H39       -10.7167    0.8539   56.5739 H       1  ZINC000938043669    0.0800
     40 H40        -8.0861    0.8776   58.0427 H       1  ZINC000938043669    0.0900
     41 H41        -9.5540    1.8721   58.3175 H       1  ZINC000938043669    0.1000
     42 H42        -7.9668   -0.7764   60.2794 H       1  ZINC000938043669    0.4000
     43 H43        -9.8570    0.1238   63.6031 H       1  ZINC000938043669    0.0700
     44 H44        -8.4319   -0.6967   64.2835 H       1  ZINC000938043669    0.0800
     45 H45        -9.8141    3.3129   64.5238 H       1  ZINC000938043669    0.1200
     46 H46        -8.5296    3.8017   62.4222 H       1  ZINC000938043669    0.1200
     47 H47        -5.6108    0.9986   63.7073 H       1  ZINC000938043669    0.0700
     48 H48        -5.8084    2.7441   63.9925 H       1  ZINC000938043669    0.0700
     49 H49        -6.9670    2.2914   65.8963 H       1  ZINC000938043669    0.0700
     50 H50        -6.7608    0.5480   65.6042 H       1  ZINC000938043669    0.0700
     51 H51       -10.3307   -2.1862   58.8146 H       1  ZINC000938043669    0.0900
     52 H52        -8.6293   -1.8783   58.3506 H       1  ZINC000938043669    0.0700
@<TRIPOS>BOND
     1     1     2    2
     2     2     3    1
     3     2    12   am
     4     3     4    1
     5     3    32    1
     6     3    33    1
     7     4     5    1
     8     5    10   ar
     9     5     6   ar
    10     6     7   ar
    11     6    34    1
    12     7     8   ar
    13     7    35    1
    14     8     9   ar
    15     8    36    1
    16     9    10   ar
    17     9    37    1
    18    10    11    1
    19    12    31    1
    20    12    13    1
    21    13    14    1
    22    13    38    1
    23    13    39    1
    24    14    15    1
    25    14    40    1
    26    14    41    1
    27    15    16    1
    28    15    17    1
    29    15    31    1
    30    17    18   am
    31    17    42    1
    32    18    19    2
    33    18    20    1
    34    20    21    1
    35    20    27    1
    36    20    22    1
    37    22    23    1
    38    22    43    1
    39    22    44    1
    40    23    24    1
    41    23    30    1
    42    23    25    1
    43    25    26    2
    44    25    45    1
    45    26    27    1
    46    26    46    1
    47    27    28    1
    48    27    29    1
    49    29    30    1
    50    29    47    1
    51    29    48    1
    52    30    49    1
    53    30    50    1
    54    31    51    1
    55    31    52    1
@<TRIPOS>SUBSTRUCTURE
     1 ZINC000938043669        1 TEMP              0 ****  ****    0 ROOT


##########                                Name:    ZINC001436455587
##########                DOCK_Rotatable_Bonds:                   9
##########                         Heavy_Atoms:                  21
##########                    Molecular_Weight:             378.693
##########                DOCK_Rotatable_Bonds:                   9
##########                       Formal_Charge:          -0.0200001
##########                     HBond_Acceptors:                   5
##########                        HBond_Donors:                   1
##########                         Heavy_Atoms:                  21
##########                          Grid_Score:          -26.792770
##########                     Grid_vdw_energy:          -26.418940
##########                      Grid_es_energy:           -0.373832
##########           Internal_energy_repulsive:           11.102532

@<TRIPOS>MOLECULE
ZINC001436455587
 42 42 1 0 0
SMALL
USER_CHARGES


@<TRIPOS>ATOM
      1 C1        -12.5442   -0.6212   52.4153 C.3     1  ZINC001436455587   -0.1500
      2 C2        -11.5080   -1.0634   53.4503 C.3     1  ZINC001436455587   -0.1300
      3 C3        -12.0723   -0.8568   54.8574 C.3     1  ZINC001436455587   -0.1400
      4 C4        -10.9970   -1.1932   55.8925 C.3     1  ZINC001436455587    0.0800
      5 H5        -11.4591   -1.3035   56.8737 H       1  ZINC001436455587    0.0700
      6 C6         -9.9636   -0.0659   55.9393 C.3     1  ZINC001436455587    0.1200
      7 N7         -9.5412    0.1522   57.3251 N.am    1  ZINC001436455587   -0.7200
      8 C8         -8.6015    1.0768   57.6054 C.2     1  ZINC001436455587    0.5200
      9 O9         -8.1068    1.7292   56.7109 O.2     1  ZINC001436455587   -0.5100
     10 C10        -8.1657    1.2999   59.0308 C.3     1  ZINC001436455587    0.0600
     11 H11        -8.7837    2.0760   59.4824 H       1  ZINC001436455587    0.1000
     12 C12        -6.6999    1.7379   59.0532 C.3     1  ZINC001436455587   -0.1800
     13 O13        -8.3113    0.0853   59.7691 O.3     1  ZINC001436455587   -0.2700
     14 C14        -8.3104    0.1832   61.1250 C.ar    1  ZINC001436455587    0.1600
     15 C15        -7.1122    0.1547   61.8222 C.ar    1  ZINC001436455587   -0.2000
     16 C16        -7.1131    0.2548   63.2005 C.ar    1  ZINC001436455587   -0.0500
     17 C17        -8.3083    0.3831   63.8852 C.ar    1  ZINC001436455587   -0.0700
     18 Cl18       -8.3064    0.5081   65.6167 Cl      1  ZINC001436455587   -0.0600
     19 C19        -9.5055    0.4122   63.1917 C.ar    1  ZINC001436455587   -0.0400
     20 C20        -9.5087    0.3176   61.8129 C.ar    1  ZINC001436455587   -0.1200
     21 Br21      -11.1446    0.3574   60.8653 Br      1  ZINC001436455587   -0.0100
     22 O22       -10.3522   -2.4158   55.5297 O.3     1  ZINC001436455587   -0.3800
     23 C23        -9.7866   -3.1246   56.6341 C.3     1  ZINC001436455587    0.0200
     24 H24       -13.4516   -1.2137   52.5335 H       1  ZINC001436455587    0.0500
     25 H25       -12.7774    0.4335   52.5621 H       1  ZINC001436455587    0.0600
     26 H26       -12.1423   -0.7683   51.4128 H       1  ZINC001436455587    0.0600
     27 H27       -11.2749   -2.1180   53.3036 H       1  ZINC001436455587    0.0600
     28 H28       -10.6007   -0.4708   53.3322 H       1  ZINC001436455587    0.0700
     29 H29       -12.3791    0.1822   54.9770 H       1  ZINC001436455587    0.0800
     30 H30       -12.9333   -1.5090   55.0029 H       1  ZINC001436455587    0.0800
     31 H31        -9.0990   -0.3403   55.3349 H       1  ZINC001436455587    0.0800
     32 H32       -10.4061    0.8493   55.5460 H       1  ZINC001436455587    0.0800
     33 H33        -9.9378   -0.3688   58.0407 H       1  ZINC001436455587    0.4000
     34 H34        -6.3847    1.8992   60.0841 H       1  ZINC001436455587    0.0800
     35 H35        -6.0819    0.9619   58.6015 H       1  ZINC001436455587    0.0800
     36 H36        -6.5888    2.6645   58.4900 H       1  ZINC001436455587    0.0800
     37 H37        -6.1788    0.0539   61.2885 H       1  ZINC001436455587    0.1500
     38 H38        -6.1799    0.2327   63.7437 H       1  ZINC001436455587    0.1400
     39 H39       -10.4376    0.5126   63.7279 H       1  ZINC001436455587    0.1500
     40 H40       -10.5832   -3.4517   57.3023 H       1  ZINC001436455587    0.0500
     41 H41        -9.2407   -3.9937   56.2668 H       1  ZINC001436455587    0.0900
     42 H42        -9.1044   -2.4692   57.1755 H       1  ZINC001436455587    0.0400
@<TRIPOS>BOND
     1     1     2    1
     2     1    24    1
     3     1    25    1
     4     1    26    1
     5     2     3    1
     6     2    27    1
     7     2    28    1
     8     3     4    1
     9     3    29    1
    10     3    30    1
    11     4     5    1
    12     4     6    1
    13     4    22    1
    14     6     7    1
    15     6    31    1
    16     6    32    1
    17     7     8   am
    18     7    33    1
    19     8     9    2
    20     8    10    1
    21    10    11    1
    22    10    12    1
    23    10    13    1
    24    12    34    1
    25    12    35    1
    26    12    36    1
    27    13    14    1
    28    14    20   ar
    29    14    15   ar
    30    15    16   ar
    31    15    37    1
    32    16    17   ar
    33    16    38    1
    34    17    18    1
    35    17    19   ar
    36    19    20   ar
    37    19    39    1
    38    20    21    1
    39    22    23    1
    40    23    40    1
    41    23    41    1
    42    23    42    1
@<TRIPOS>SUBSTRUCTURE
     1 ZINC001436455587        1 TEMP              0 ****  ****    0 ROOT


##########                                Name:    ZINC000187810810
##########                DOCK_Rotatable_Bonds:                   7
##########                         Heavy_Atoms:                  27
##########                    Molecular_Weight:             386.414
##########                DOCK_Rotatable_Bonds:                   7
##########                       Formal_Charge:           0.0599998
##########                     HBond_Acceptors:                   8
##########                        HBond_Donors:                   1
##########                         Heavy_Atoms:                  27
##########                          Grid_Score:          -26.782230
##########                     Grid_vdw_energy:          -26.228378
##########                      Grid_es_energy:           -0.553851
##########           Internal_energy_repulsive:          107.333870

@<TRIPOS>MOLECULE
ZINC000187810810
 52 53 1 0 0
SMALL
USER_CHARGES


@<TRIPOS>ATOM
      1 C1        -15.2375   -3.4875   57.1223 C.3     1  ZINC000187810810   -0.1800
      2 C2        -14.8524   -2.1248   57.7018 C.3     1  ZINC000187810810    0.1400
      3 C3        -16.0088   -1.1423   57.5061 C.3     1  ZINC000187810810   -0.1800
      4 C4        -14.5550   -2.2715   59.1954 C.3     1  ZINC000187810810   -0.1400
      5 O5        -13.6720   -1.6250   57.0199 O.3     1  ZINC000187810810   -0.3600
      6 C6        -12.4822   -2.1090   57.4233 C.2     1  ZINC000187810810    0.6500
      7 O7        -12.2299   -3.2901   57.2895 O.2     1  ZINC000187810810   -0.5600
      8 N8        -11.5710   -1.2837   57.9755 N.am    1  ZINC000187810810   -0.6000
      9 C9        -11.8647    0.1452   58.1512 C.3     1  ZINC000187810810    0.1100
     10 C10       -10.7436    0.9624   57.5014 C.3     1  ZINC000187810810   -0.1400
     11 C11        -9.3964    0.5220   58.0785 C.3     1  ZINC000187810810    0.1800
     12 C12        -8.2772    1.3600   57.4571 C.3     1  ZINC000187810810   -0.1600
     13 N13        -9.4012    0.7143   59.5308 N.am    1  ZINC000187810810   -0.7100
     14 C14        -8.3741    0.2577   60.2745 C.2     1  ZINC000187810810    0.5500
     15 O15        -7.4445   -0.3151   59.7404 O.2     1  ZINC000187810810   -0.5100
     16 C16        -8.3781    0.4533   61.7400 C.ar    1  ZINC000187810810   -0.0900
     17 C17        -7.1740    0.5029   62.4437 C.ar    1  ZINC000187810810   -0.0900
     18 C18        -7.1848    0.6862   63.8113 C.ar    1  ZINC000187810810   -0.0900
     19 C19        -8.3857    0.8202   64.4848 C.ar    1  ZINC000187810810   -0.0900
     20 C20        -9.5832    0.7715   63.7930 C.ar    1  ZINC000187810810   -0.0800
     21 C21        -9.5862    0.5950   62.4250 C.ar    1  ZINC000187810810   -0.1300
     22 C22       -10.8912    0.5426   61.6731 C.3     1  ZINC000187810810    0.5200
     23 F23       -11.0309    1.7005   60.9003 F       1  ZINC000187810810   -0.1800
     24 F24       -10.9035   -0.5797   60.8379 F       1  ZINC000187810810   -0.1600
     25 F25       -11.9506    0.4585   62.5829 F       1  ZINC000187810810   -0.1600
     26 C26        -9.1624   -0.9568   57.7611 C.3     1  ZINC000187810810   -0.1500
     27 C27       -10.2677   -1.7968   58.4190 C.3     1  ZINC000187810810    0.1300
     28 H28       -15.4495   -3.3831   56.0582 H       1  ZINC000187810810    0.0900
     29 H29       -14.4137   -4.1875   57.2617 H       1  ZINC000187810810    0.0600
     30 H30       -16.1237   -3.8627   57.6342 H       1  ZINC000187810810    0.0700
     31 H31       -16.8950   -1.5175   58.0180 H       1  ZINC000187810810    0.0700
     32 H32       -15.7345   -0.1715   57.9191 H       1  ZINC000187810810    0.0600
     33 H33       -16.2208   -1.0378   56.4421 H       1  ZINC000187810810    0.0900
     34 H34       -13.7311   -2.9715   59.3348 H       1  ZINC000187810810    0.0700
     35 H35       -14.2806   -1.3007   59.6082 H       1  ZINC000187810810    0.0700
     36 H36       -15.4411   -2.6467   59.7073 H       1  ZINC000187810810    0.0800
     37 H37       -12.8150    0.3843   57.6739 H       1  ZINC000187810810    0.1000
     38 H38       -11.9183    0.3792   59.2145 H       1  ZINC000187810810    0.0700
     39 H39       -10.7498    0.7963   56.4242 H       1  ZINC000187810810    0.0900
     40 H40       -10.8990    2.0214   57.7075 H       1  ZINC000187810810    0.0900
     41 H41        -8.4430    2.4131   57.6841 H       1  ZINC000187810810    0.0600
     42 H42        -7.3175    1.0465   57.8680 H       1  ZINC000187810810    0.0800
     43 H43        -8.2737    1.2173   56.3764 H       1  ZINC000187810810    0.0700
     44 H44       -10.1436    1.1704   59.9572 H       1  ZINC000187810810    0.4000
     45 H45        -6.2358    0.3977   61.9191 H       1  ZINC000187810810    0.1400
     46 H46        -6.2536    0.7247   64.3570 H       1  ZINC000187810810    0.1400
     47 H47        -8.3887    0.9631   65.5552 H       1  ZINC000187810810    0.1400
     48 H48       -10.5173    0.8764   64.3248 H       1  ZINC000187810810    0.1500
     49 H49        -9.1835   -1.1048   56.6814 H       1  ZINC000187810810    0.0800
     50 H50        -8.1924   -1.2638   58.1521 H       1  ZINC000187810810    0.1000
     51 H51       -10.1885   -1.7200   59.5034 H       1  ZINC000187810810    0.0700
     52 H52       -10.1641   -2.8387   58.1158 H       1  ZINC000187810810    0.1000
@<TRIPOS>BOND
     1     1     2    1
     2     1    28    1
     3     1    29    1
     4     1    30    1
     5     2     3    1
     6     2     4    1
     7     2     5    1
     8     3    31    1
     9     3    32    1
    10     3    33    1
    11     4    34    1
    12     4    35    1
    13     4    36    1
    14     5     6    1
    15     6     7    2
    16     6     8   am
    17     8    27    1
    18     8     9    1
    19     9    10    1
    20     9    37    1
    21     9    38    1
    22    10    11    1
    23    10    39    1
    24    10    40    1
    25    11    12    1
    26    11    13    1
    27    11    26    1
    28    12    41    1
    29    12    42    1
    30    12    43    1
    31    13    14   am
    32    13    44    1
    33    14    15    2
    34    14    16    1
    35    16    21   ar
    36    16    17   ar
    37    17    18   ar
    38    17    45    1
    39    18    19   ar
    40    18    46    1
    41    19    20   ar
    42    19    47    1
    43    20    21   ar
    44    20    48    1
    45    21    22    1
    46    22    23    1
    47    22    24    1
    48    22    25    1
    49    26    27    1
    50    26    49    1
    51    26    50    1
    52    27    51    1
    53    27    52    1
@<TRIPOS>SUBSTRUCTURE
     1 ZINC000187810810        1 TEMP              0 ****  ****    0 ROOT


##########                                Name:    ZINC001058772245
##########                DOCK_Rotatable_Bonds:                  11
##########                         Heavy_Atoms:                  22
##########                    Molecular_Weight:             335.375
##########                DOCK_Rotatable_Bonds:                  11
##########                       Formal_Charge:          0.00999964
##########                     HBond_Acceptors:                   9
##########                        HBond_Donors:                   2
##########                         Heavy_Atoms:                  22
##########                          Grid_Score:          -26.766769
##########                     Grid_vdw_energy:          -25.741171
##########                      Grid_es_energy:           -1.025598
##########           Internal_energy_repulsive:           64.218697

@<TRIPOS>MOLECULE
ZINC001058772245
 41 41 1 0 0
SMALL
USER_CHARGES


@<TRIPOS>ATOM
      1 C1        -14.9271   -0.9023   57.5210 C.3     1  ZINC001058772245   -0.1700
      2 C2        -14.2882   -2.0311   58.3324 C.3     1  ZINC001058772245   -0.1400
      3 C3        -15.2089   -3.2529   58.3192 C.3     1  ZINC001058772245   -0.1500
      4 C4        -12.9591   -2.3971   57.7238 C.2     1  ZINC001058772245    0.5300
      5 O5        -12.7822   -3.5114   57.2786 O.2     1  ZINC001058772245   -0.5200
      6 N6        -11.9668   -1.4863   57.6741 N.am    1  ZINC001058772245   -0.5900
      7 C7        -12.1805   -0.1404   58.2117 C.3     1  ZINC001058772245    0.0800
      8 C8        -11.0695    0.1925   59.2096 C.3     1  ZINC001058772245    0.0400
      9 O9        -11.5782    1.0745   60.2122 O.3     1  ZINC001058772245   -0.5700
     10 C10       -10.6748   -1.8422   57.0824 C.3     1  ZINC001058772245    0.1100
     11 C11       -10.7550   -1.7035   55.5608 C.3     1  ZINC001058772245    0.1000
     12 N12        -9.6120   -0.9231   55.0806 N.am    1  ZINC001058772245   -0.7100
     13 C13        -9.2426   -0.9954   53.7865 C.2     1  ZINC001058772245    0.6000
     14 O14        -9.8592   -1.7075   53.0169 O.2     1  ZINC001058772245   -0.5300
     15 C15        -8.0925   -0.2123   53.3041 C.2     1  ZINC001058772245    0.0000
     16 C16        -7.7933    1.0228   53.7658 C.2     1  ZINC001058772245   -0.2200
     17 S17        -6.3953    1.5889   52.9612 S.3     1  ZINC001058772245    0.2300
     18 C18        -6.2909    0.1449   52.0554 C.2     1  ZINC001058772245    0.0000
     19 N19        -7.2443   -0.6581   52.3737 N.2     1  ZINC001058772245   -0.4400
     20 C20       -14.0780   -1.5665   59.7749 C.3     1  ZINC001058772245    0.2900
     21 F21       -14.7784   -0.3743   59.9875 F       1  ZINC001058772245   -0.1900
     22 F22       -14.5493   -2.5474   60.6541 F       1  ZINC001058772245   -0.2000
     23 H23       -15.7257   -0.4430   58.1036 H       1  ZINC001058772245    0.0800
     24 H24       -14.1722   -0.1524   57.2848 H       1  ZINC001058772245    0.0700
     25 H25       -15.3386   -1.3073   56.5964 H       1  ZINC001058772245    0.0900
     26 H26       -15.1511   -3.7411   57.3463 H       1  ZINC001058772245    0.0800
     27 H27       -14.8966   -3.9516   59.0954 H       1  ZINC001058772245    0.0700
     28 H28       -16.2351   -2.9366   58.5065 H       1  ZINC001058772245    0.0900
     29 H29       -12.1655    0.5831   57.3965 H       1  ZINC001058772245    0.0900
     30 H30       -13.1460   -0.0996   58.7159 H       1  ZINC001058772245    0.1200
     31 H31       -10.7157   -0.7255   59.6789 H       1  ZINC001058772245    0.0600
     32 H32       -10.2438    0.6747   58.6864 H       1  ZINC001058772245    0.0700
     33 H33       -11.9104    1.9139   59.8656 H       1  ZINC001058772245    0.3800
     34 H34        -9.9029   -1.1760   57.4677 H       1  ZINC001058772245    0.1000
     35 H35       -10.4282   -2.8720   57.3409 H       1  ZINC001058772245    0.0900
     36 H36       -10.7368   -2.6931   55.1043 H       1  ZINC001058772245    0.0700
     37 H37       -11.6809   -1.1956   55.2906 H       1  ZINC001058772245    0.0700
     38 H38        -9.1210   -0.3543   55.6940 H       1  ZINC001058772245    0.4100
     39 H39        -8.3468    1.5632   54.5194 H       1  ZINC001058772245    0.1900
     40 H40        -5.5286   -0.0662   51.3201 H       1  ZINC001058772245    0.2100
     41 H41       -13.0155   -1.4002   59.9519 H       1  ZINC001058772245    0.1200
@<TRIPOS>BOND
     1     1     2    1
     2     1    23    1
     3     1    24    1
     4     1    25    1
     5     2     3    1
     6     2     4    1
     7     2    20    1
     8     3    26    1
     9     3    27    1
    10     3    28    1
    11     4     5    2
    12     4     6   am
    13     6     7    1
    14     6    10    1
    15     7     8    1
    16     7    29    1
    17     7    30    1
    18     8     9    1
    19     8    31    1
    20     8    32    1
    21     9    33    1
    22    10    11    1
    23    10    34    1
    24    10    35    1
    25    11    12    1
    26    11    36    1
    27    11    37    1
    28    12    13   am
    29    12    38    1
    30    13    14    2
    31    13    15    1
    32    15    19    1
    33    15    16    2
    34    16    17    1
    35    16    39    1
    36    17    18    1
    37    18    19    2
    38    18    40    1
    39    20    21    1
    40    20    22    1
    41    20    41    1
@<TRIPOS>SUBSTRUCTURE
     1 ZINC001058772245        1 TEMP              0 ****  ****    0 ROOT


##########                                Name:    ZINC000482139334
##########                DOCK_Rotatable_Bonds:                   4
##########                         Heavy_Atoms:                  26
##########                    Molecular_Weight:             348.376
##########                DOCK_Rotatable_Bonds:                   4
##########                       Formal_Charge:           0.0300002
##########                     HBond_Acceptors:                   5
##########                        HBond_Donors:                   1
##########                         Heavy_Atoms:                  26
##########                          Grid_Score:          -26.757835
##########                     Grid_vdw_energy:          -27.636665
##########                      Grid_es_energy:            0.878830
##########           Internal_energy_repulsive:           12.914719

@<TRIPOS>MOLECULE
ZINC000482139334
 43 47 1 0 0
SMALL
USER_CHARGES


@<TRIPOS>ATOM
      1 O1         -5.8682    1.5422   51.0757 O.2     1  ZINC000482139334   -0.4800
      2 C2         -5.9649    2.1182   52.1385 C.2     1  ZINC000482139334    0.5500
      3 N3         -4.8640    2.6082   52.7421 N.am    1  ZINC000482139334   -0.6100
      4 C4         -3.6204    2.4488   52.1509 C.2     1  ZINC000482139334    0.4300
      5 N5         -2.5162    3.0377   52.5323 N.2     1  ZINC000482139334   -0.4800
      6 C6         -1.5084    2.6346   51.7147 C.2     1  ZINC000482139334    0.0400
      7 C7         -0.0892    3.0595   51.7941 C.ar    1  ZINC000482139334   -0.0500
      8 C8          0.8281    2.6149   50.8447 C.ar    1  ZINC000482139334   -0.0800
      9 C9          2.1474    3.0137   50.9229 C.ar    1  ZINC000482139334   -0.1300
     10 C10         2.5607    3.8529   51.9415 C.ar    1  ZINC000482139334   -0.0800
     11 C11         1.6561    4.2983   52.8883 C.ar    1  ZINC000482139334   -0.1600
     12 C12         0.3312    3.9110   52.8171 C.ar    1  ZINC000482139334    0.1300
     13 F13        -0.5523    4.3462   53.7419 F       1  ZINC000482139334   -0.1200
     14 C14        -2.0385    1.7731   50.8146 C.2     1  ZINC000482139334   -0.0600
     15 O15        -3.3528    1.6607   51.0984 O.3     1  ZINC000482139334   -0.1800
     16 C16        -7.3169    2.2916   52.7813 C.3     1  ZINC000482139334   -0.1800
     17 H17        -7.7591    1.3866   53.1979 H       1  ZINC000482139334    0.1400
     18 C18        -7.5910    3.6116   53.5072 C.3     1  ZINC000482139334   -0.1200
     19 C19        -8.2612    3.3186   52.1686 C.3     1  ZINC000482139334   -0.0500
     20 C20        -7.8764    4.0974   50.8996 C.3     1  ZINC000482139334   -0.0700
     21 C21        -9.2053    4.7914   50.5265 C.3     1  ZINC000482139334   -0.0900
     22 C22       -10.2907    3.9158   51.1168 C.ar    1  ZINC000482139334   -0.0800
     23 C23       -11.6473    3.8648   50.8467 C.ar    1  ZINC000482139334   -0.1100
     24 C24       -12.4582    2.9721   51.5203 C.ar    1  ZINC000482139334   -0.1100
     25 C25       -11.9138    2.1262   52.4681 C.ar    1  ZINC000482139334   -0.1200
     26 C26       -10.5604    2.1749   52.7394 C.ar    1  ZINC000482139334   -0.1000
     27 C27        -9.7449    3.0683   52.0655 C.ar    1  ZINC000482139334   -0.0700
     28 H28        -4.9418    3.0724   53.5903 H       1  ZINC000482139334    0.4400
     29 H29         0.5076    1.9589   50.0488 H       1  ZINC000482139334    0.1300
     30 H30         2.8587    2.6690   50.1868 H       1  ZINC000482139334    0.1400
     31 H31         3.5942    4.1615   51.9981 H       1  ZINC000482139334    0.1400
     32 H32         1.9845    4.9530   53.6819 H       1  ZINC000482139334    0.1400
     33 H33        -1.5082    1.2681   50.0207 H       1  ZINC000482139334    0.2200
     34 H34        -8.2141    3.5750   54.4007 H       1  ZINC000482139334    0.1200
     35 H35        -6.7934    4.3545   53.5196 H       1  ZINC000482139334    0.1100
     36 H36        -7.1018    4.8331   51.1156 H       1  ZINC000482139334    0.0800
     37 H37        -7.5582    3.4179   50.1088 H       1  ZINC000482139334    0.0900
     38 H38        -9.2458    5.7894   50.9627 H       1  ZINC000482139334    0.0800
     39 H39        -9.3117    4.8467   49.4432 H       1  ZINC000482139334    0.0800
     40 H40       -12.0736    4.5258   50.1065 H       1  ZINC000482139334    0.1200
     41 H41       -13.5162    2.9356   51.3068 H       1  ZINC000482139334    0.1300
     42 H42       -12.5462    1.4280   52.9963 H       1  ZINC000482139334    0.1300
     43 H43       -10.1363    1.5136   53.4806 H       1  ZINC000482139334    0.1200
@<TRIPOS>BOND
     1     1     2    2
     2     2     3   am
     3     2    16    1
     4     3     4    1
     5     3    28    1
     6     4    15    1
     7     4     5    2
     8     5     6    1
     9     6     7    1
    10     6    14    2
    11     7    12   ar
    12     7     8   ar
    13     8     9   ar
    14     8    29    1
    15     9    10   ar
    16     9    30    1
    17    10    11   ar
    18    10    31    1
    19    11    12   ar
    20    11    32    1
    21    12    13    1
    22    14    15    1
    23    14    33    1
    24    16    17    1
    25    16    19    1
    26    16    18    1
    27    18    19    1
    28    18    34    1
    29    18    35    1
    30    19    27    1
    31    19    20    1
    32    20    21    1
    33    20    36    1
    34    20    37    1
    35    21    22    1
    36    21    38    1
    37    21    39    1
    38    22    27   ar
    39    22    23   ar
    40    23    24   ar
    41    23    40    1
    42    24    25   ar
    43    24    41    1
    44    25    26   ar
    45    25    42    1
    46    26    27   ar
    47    26    43    1
@<TRIPOS>SUBSTRUCTURE
     1 ZINC000482139334        1 TEMP              0 ****  ****    0 ROOT


##########                                Name:    ZINC000967287417
##########                DOCK_Rotatable_Bonds:                   7
##########                         Heavy_Atoms:                  25
##########                    Molecular_Weight:             347.414
##########                DOCK_Rotatable_Bonds:                   7
##########                       Formal_Charge:          -0.0200002
##########                     HBond_Acceptors:                   7
##########                        HBond_Donors:                   1
##########                         Heavy_Atoms:                  25
##########                          Grid_Score:          -26.743202
##########                     Grid_vdw_energy:          -27.056095
##########                      Grid_es_energy:            0.312893
##########           Internal_energy_repulsive:            8.107653

@<TRIPOS>MOLECULE
ZINC000967287417
 50 52 1 0 0
SMALL
USER_CHARGES


@<TRIPOS>ATOM
      1 C1         -7.1702    0.2914   61.7015 C.3     1  ZINC000967287417    0.0300
      2 O2         -6.9056    0.0993   60.3104 O.3     1  ZINC000967287417   -0.3900
      3 C3         -7.8502    0.7339   59.4461 C.3     1  ZINC000967287417    0.1400
      4 C4         -7.2596    2.0118   58.9084 C.2     1  ZINC000967287417    0.0100
      5 C5         -6.6098    2.9460   59.6371 C.2     1  ZINC000967287417   -0.1900
      6 C6         -6.2260    3.9664   58.7528 C.2     1  ZINC000967287417   -0.1200
      7 C7         -6.6666    3.5984   57.5139 C.2     1  ZINC000967287417   -0.0700
      8 C8         -6.4911    4.3627   56.2747 C.2     1  ZINC000967287417    0.6100
      9 O9         -6.5095    5.5792   56.3022 O.2     1  ZINC000967287417   -0.5200
     10 N10        -6.3095    3.7179   55.1052 N.am    1  ZINC000967287417   -0.7000
     11 C11        -6.1324    4.4814   53.8674 C.3     1  ZINC000967287417    0.1600
     12 H12        -6.7223    5.3966   53.9169 H       1  ZINC000967287417    0.1000
     13 C13        -4.6538    4.8354   53.6926 C.3     1  ZINC000967287417    0.0400
     14 N14        -3.8609    3.6024   53.6058 N.3     1  ZINC000967287417   -0.5300
     15 C15        -2.4232    3.9021   53.5766 C.3     1  ZINC000967287417    0.1300
     16 C16        -1.8106    3.5553   54.9091 C.2     1  ZINC000967287417    0.0200
     17 N17        -2.4419    3.3618   56.0309 N.2     1  ZINC000967287417   -0.3500
     18 O18        -1.6792    3.0971   56.9312 O.3     1  ZINC000967287417    0.1000
     19 C19        -0.4068    3.0804   56.5100 C.2     1  ZINC000967287417   -0.0300
     20 C20         0.8154    2.7905   57.3427 C.3     1  ZINC000967287417   -0.0800
     21 C21        -0.4369    3.3695   55.1871 C.2     1  ZINC000967287417   -0.2400
     22 C22        -4.2548    2.7987   52.4417 C.3     1  ZINC000967287417    0.0500
     23 C23        -5.7214    2.3840   52.5791 C.3     1  ZINC000967287417   -0.1100
     24 C24        -6.5954    3.6384   52.6761 C.3     1  ZINC000967287417   -0.1000
     25 H25        -6.5005    4.2203   51.7593 H       1  ZINC000967287417    0.0900
     26 C26        -8.0567    3.2296   52.8731 C.3     1  ZINC000967287417   -0.1500
     27 O27        -7.2871    2.4059   57.6287 O.3     1  ZINC000967287417   -0.1600
     28 H28        -8.1519   -0.1153   61.9442 H       1  ZINC000967287417    0.0500
     29 H29        -6.4091   -0.2209   62.2903 H       1  ZINC000967287417    0.0900
     30 H30        -7.1512    1.3567   61.9313 H       1  ZINC000967287417    0.0500
     31 H31        -8.0895    0.0674   58.6175 H       1  ZINC000967287417    0.0900
     32 H32        -8.7586    0.9602   60.0045 H       1  ZINC000967287417    0.0700
     33 H33        -6.4212    2.9138   60.6999 H       1  ZINC000967287417    0.1600
     34 H34        -5.6868    4.8679   59.0037 H       1  ZINC000967287417    0.1600
     35 H35        -6.2960    2.7482   55.0830 H       1  ZINC000967287417    0.4100
     36 H36        -4.5247    5.4153   52.7788 H       1  ZINC000967287417    0.0500
     37 H37        -4.3178    5.4239   54.5465 H       1  ZINC000967287417    0.0900
     38 H38        -1.9452    3.3142   52.7929 H       1  ZINC000967287417    0.0600
     39 H39        -2.2772    4.9633   53.3749 H       1  ZINC000967287417    0.0900
     40 H40         0.5152    2.5893   58.3710 H       1  ZINC000967287417    0.0800
     41 H41         1.3325    1.9203   56.9382 H       1  ZINC000967287417    0.0900
     42 H42         1.4825    3.6522   57.3210 H       1  ZINC000967287417    0.0900
     43 H43         0.3962    3.4468   54.5041 H       1  ZINC000967287417    0.1700
     44 H44        -4.1276    3.3881   51.5336 H       1  ZINC000967287417    0.0400
     45 H45        -3.6290    1.9079   52.3868 H       1  ZINC000967287417    0.0800
     46 H46        -6.0179    1.8005   51.7074 H       1  ZINC000967287417    0.0700
     47 H47        -5.8467    1.7828   53.4797 H       1  ZINC000967287417    0.0700
     48 H48        -8.1510    2.6497   53.7912 H       1  ZINC000967287417    0.0600
     49 H49        -8.6777    4.1227   52.9420 H       1  ZINC000967287417    0.0600
     50 H50        -8.3821    2.6251   52.0265 H       1  ZINC000967287417    0.0600
@<TRIPOS>BOND
     1     1     2    1
     2     1    28    1
     3     1    29    1
     4     1    30    1
     5     2     3    1
     6     3     4    1
     7     3    31    1
     8     3    32    1
     9     4    27    1
    10     4     5    2
    11     5     6    1
    12     5    33    1
    13     6     7    2
    14     6    34    1
    15     7     8    1
    16     7    27    1
    17     8     9    2
    18     8    10   am
    19    10    11    1
    20    10    35    1
    21    11    12    1
    22    11    24    1
    23    11    13    1
    24    13    14    1
    25    13    36    1
    26    13    37    1
    27    14    15    1
    28    14    22    1
    29    15    16    1
    30    15    38    1
    31    15    39    1
    32    16    21    1
    33    16    17    2
    34    17    18    1
    35    18    19    1
    36    19    20    1
    37    19    21    2
    38    20    40    1
    39    20    41    1
    40    20    42    1
    41    21    43    1
    42    22    23    1
    43    22    44    1
    44    22    45    1
    45    23    24    1
    46    23    46    1
    47    23    47    1
    48    24    25    1
    49    24    26    1
    50    26    48    1
    51    26    49    1
    52    26    50    1
@<TRIPOS>SUBSTRUCTURE
     1 ZINC000967287417        1 TEMP              0 ****  ****    0 ROOT


##########                                Name:    ZINC000673213454
##########                DOCK_Rotatable_Bonds:                   7
##########                         Heavy_Atoms:                  26
##########                    Molecular_Weight:             360.453
##########                DOCK_Rotatable_Bonds:                   7
##########                       Formal_Charge:          -0.0100001
##########                     HBond_Acceptors:                   6
##########                        HBond_Donors:                   1
##########                         Heavy_Atoms:                  26
##########                          Grid_Score:          -26.734583
##########                     Grid_vdw_energy:          -26.146189
##########                      Grid_es_energy:           -0.588395
##########           Internal_energy_repulsive:           12.855183

@<TRIPOS>MOLECULE
ZINC000673213454
 54 56 1 0 0
SMALL
USER_CHARGES


@<TRIPOS>ATOM
      1 C1         -6.5280    1.4645   58.5992 C.3     1  ZINC000673213454   -0.1700
      2 C2         -7.7641    1.0422   59.3960 C.3     1  ZINC000673213454    0.1400
      3 H3         -8.3094    1.9294   59.7179 H       1  ZINC000673213454    0.0900
      4 C4         -7.3299    0.2374   60.6226 C.3     1  ZINC000673213454   -0.1200
      5 C5         -7.4930    1.0949   61.8790 C.3     1  ZINC000673213454   -0.1300
      6 H6         -7.1307    2.1069   61.6989 H       1  ZINC000673213454    0.0800
      7 C7         -6.7429    0.4552   63.0728 C.3     1  ZINC000673213454   -0.1500
      8 C8         -7.7354    0.6853   64.2408 C.3     1  ZINC000673213454    0.0500
      9 O9         -9.0285    0.5019   63.6252 O.3     1  ZINC000673213454   -0.3800
     10 C10        -8.9676    1.1215   62.3262 C.3     1  ZINC000673213454    0.0500
     11 N11        -8.6306    0.2162   58.5515 N.am    1  ZINC000673213454   -0.6900
     12 C12        -9.6292    0.7868   57.8488 C.2     1  ZINC000673213454    0.5100
     13 O13        -9.8095    1.9851   57.9143 O.2     1  ZINC000673213454   -0.5100
     14 C14       -10.5143   -0.0561   56.9888 C.2     1  ZINC000673213454    0.5000
     15 O15       -11.5609   -0.4831   57.4301 O.2     1  ZINC000673213454   -0.5200
     16 N16       -10.1501   -0.3419   55.7230 N.am    1  ZINC000673213454   -0.5800
     17 C17       -11.0443   -1.1762   54.8984 C.3     1  ZINC000673213454    0.1100
     18 C18       -11.1400   -0.6320   53.4655 C.3     1  ZINC000673213454   -0.1700
     19 C19       -11.2006    0.8818   53.5004 C.3     1  ZINC000673213454    0.0800
     20 O20        -9.8778    1.3945   53.4094 O.3     1  ZINC000673213454   -0.3800
     21 C21        -9.1342    1.5610   54.5602 C.3     1  ZINC000673213454    0.1500
     22 H22        -9.6749    2.2071   55.2518 H       1  ZINC000673213454    0.0600
     23 C23        -7.8095    2.1914   54.2153 C.ar    1  ZINC000673213454   -0.0800
     24 C24        -7.3353    3.2550   54.9601 C.ar    1  ZINC000673213454   -0.0900
     25 C25        -6.1202    3.8331   54.6437 C.ar    1  ZINC000673213454   -0.1300
     26 C26        -5.3791    3.3475   53.5827 C.ar    1  ZINC000673213454   -0.1200
     27 C27        -5.8528    2.2833   52.8384 C.ar    1  ZINC000673213454   -0.1300
     28 C28        -7.0660    1.7023   53.1575 C.ar    1  ZINC000673213454   -0.0900
     29 C29        -8.8957    0.1878   55.2210 C.3     1  ZINC000673213454    0.0700
     30 H30        -5.9828    0.5773   58.2772 H       1  ZINC000673213454    0.0600
     31 H31        -6.8374    2.0379   57.7254 H       1  ZINC000673213454    0.0600
     32 H32        -5.8833    2.0790   59.2275 H       1  ZINC000673213454    0.0700
     33 H33        -7.9492   -0.6555   60.7090 H       1  ZINC000673213454    0.0800
     34 H34        -6.2851   -0.0541   60.5147 H       1  ZINC000673213454    0.0900
     35 H35        -6.5802   -0.6094   62.9045 H       1  ZINC000673213454    0.0800
     36 H36        -5.7987    0.9671   63.2581 H       1  ZINC000673213454    0.0800
     37 H37        -7.5778   -0.0509   65.0290 H       1  ZINC000673213454    0.0900
     38 H38        -7.6375    1.6972   64.6340 H       1  ZINC000673213454    0.0600
     39 H39        -9.3202    2.1509   62.3896 H       1  ZINC000673213454    0.0600
     40 H40        -9.5792    0.5611   61.6192 H       1  ZINC000673213454    0.0900
     41 H41        -8.4858   -0.7414   58.4982 H       1  ZINC000673213454    0.4100
     42 H42       -10.6573   -2.1948   54.8693 H       1  ZINC000673213454    0.0800
     43 H43       -12.0385   -1.1847   55.3452 H       1  ZINC000673213454    0.0900
     44 H44       -10.2642   -0.9473   52.8983 H       1  ZINC000673213454    0.0800
     45 H45       -12.0400   -1.0204   52.9891 H       1  ZINC000673213454    0.0900
     46 H46       -11.7913    1.2434   52.6587 H       1  ZINC000673213454    0.1000
     47 H47       -11.6553    1.2079   54.4358 H       1  ZINC000673213454    0.0500
     48 H48        -7.9143    3.6344   55.7890 H       1  ZINC000673213454    0.1300
     49 H49        -5.7501    4.6646   55.2252 H       1  ZINC000673213454    0.1200
     50 H50        -4.4301    3.7996   53.3350 H       1  ZINC000673213454    0.1200
     51 H51        -5.2740    1.9040   52.0093 H       1  ZINC000673213454    0.1200
     52 H52        -7.4360    0.8709   52.5760 H       1  ZINC000673213454    0.1300
     53 H53        -8.1945    0.2996   56.0480 H       1  ZINC000673213454    0.1200
     54 H54        -8.4823   -0.5023   54.4854 H       1  ZINC000673213454    0.0800
@<TRIPOS>BOND
     1     1     2    1
     2     1    30    1
     3     1    31    1
     4     1    32    1
     5     2     3    1
     6     2     4    1
     7     2    11    1
     8     4     5    1
     9     4    33    1
    10     4    34    1
    11     5     6    1
    12     5    10    1
    13     5     7    1
    14     7     8    1
    15     7    35    1
    16     7    36    1
    17     8     9    1
    18     8    37    1
    19     8    38    1
    20     9    10    1
    21    10    39    1
    22    10    40    1
    23    11    12   am
    24    11    41    1
    25    12    13    2
    26    12    14    1
    27    14    15    2
    28    14    16   am
    29    16    29    1
    30    16    17    1
    31    17    18    1
    32    17    42    1
    33    17    43    1
    34    18    19    1
    35    18    44    1
    36    18    45    1
    37    19    20    1
    38    19    46    1
    39    19    47    1
    40    20    21    1
    41    21    22    1
    42    21    23    1
    43    21    29    1
    44    23    28   ar
    45    23    24   ar
    46    24    25   ar
    47    24    48    1
    48    25    26   ar
    49    25    49    1
    50    26    27   ar
    51    26    50    1
    52    27    28   ar
    53    27    51    1
    54    28    52    1
    55    29    53    1
    56    29    54    1
@<TRIPOS>SUBSTRUCTURE
     1 ZINC000673213454        1 TEMP              0 ****  ****    0 ROOT


##########                                Name:    ZINC000347662449
##########                DOCK_Rotatable_Bonds:                   5
##########                         Heavy_Atoms:                  23
##########                    Molecular_Weight:              327.45
##########                DOCK_Rotatable_Bonds:                   5
##########                       Formal_Charge:                0.03
##########                     HBond_Acceptors:                   5
##########                        HBond_Donors:                   0
##########                         Heavy_Atoms:                  23
##########                          Grid_Score:          -26.731312
##########                     Grid_vdw_energy:          -25.596830
##########                      Grid_es_energy:           -1.134482
##########           Internal_energy_repulsive:            4.614239

@<TRIPOS>MOLECULE
ZINC000347662449
 44 46 1 0 0
SMALL
USER_CHARGES


@<TRIPOS>ATOM
      1 C1        -11.5754   -3.2611   57.2698 C.2     1  ZINC000347662449   -0.1800
      2 C2        -11.3878   -2.0778   56.7398 C.2     1  ZINC000347662449   -0.1700
      3 C3        -10.3135   -1.8789   55.7019 C.3     1  ZINC000347662449    0.1600
      4 N4        -10.7134   -0.8094   54.7840 N.am    1  ZINC000347662449   -0.6200
      5 C5        -12.1031   -0.5011   54.4269 C.3     1  ZINC000347662449    0.1100
      6 C6        -12.0671    0.9179   53.8175 C.3     1  ZINC000347662449   -0.1100
      7 C7        -10.6126    1.0015   53.2992 C.3     1  ZINC000347662449   -0.1200
      8 H8        -10.5639    0.7082   52.2506 H       1  ZINC000347662449    0.1400
      9 S9         -9.9571    2.6744   53.5187 S.3     1  ZINC000347662449    0.0300
     10 C10        -9.8303    3.1767   51.8346 C.2     1  ZINC000347662449    0.1900
     11 N11       -10.8159    3.2163   50.9684 N.2     1  ZINC000347662449   -0.4500
     12 C12       -10.3508    3.6485   49.7840 C.2     1  ZINC000347662449   -0.0100
     13 C13        -9.0342    3.8884   49.9071 C.2     1  ZINC000347662449   -0.0400
     14 N14        -8.6925    3.5962   51.2103 N.pl3   1  ZINC000347662449   -0.4000
     15 C15        -7.4171    3.7021   51.7826 C.ar    1  ZINC000347662449    0.1100
     16 C16        -7.1636    4.6735   52.7413 C.ar    1  ZINC000347662449   -0.1100
     17 C17        -5.9058    4.7755   53.3034 C.ar    1  ZINC000347662449   -0.1000
     18 C18        -4.9000    3.9114   52.9120 C.ar    1  ZINC000347662449   -0.0800
     19 C19        -3.5291    4.0250   53.5275 C.3     1  ZINC000347662449   -0.1200
     20 C20        -5.1496    2.9427   51.9571 C.ar    1  ZINC000347662449   -0.0700
     21 C21        -4.0506    2.0026   51.5332 C.3     1  ZINC000347662449   -0.1200
     22 C22        -6.4066    2.8320   51.3957 C.ar    1  ZINC000347662449   -0.1100
     23 C23        -9.8549    0.0193   54.1651 C.2     1  ZINC000347662449    0.5300
     24 O24        -8.6480   -0.0196   54.2785 O.2     1  ZINC000347662449   -0.4900
     25 H25       -10.9601   -4.0940   56.9629 H       1  ZINC000347662449    0.1000
     26 H26       -12.3424   -3.4027   58.0168 H       1  ZINC000347662449    0.1000
     27 H27       -12.0031   -1.2450   57.0467 H       1  ZINC000347662449    0.1100
     28 H28        -9.3797   -1.6057   56.1933 H       1  ZINC000347662449    0.0900
     29 H29       -10.1727   -2.8039   55.1428 H       1  ZINC000347662449    0.0900
     30 H30       -12.4718   -1.2177   53.6929 H       1  ZINC000347662449    0.0800
     31 H31       -12.7328   -0.5137   55.3166 H       1  ZINC000347662449    0.0900
     32 H32       -12.7792    1.0084   52.9973 H       1  ZINC000347662449    0.1100
     33 H33       -12.2538    1.6746   54.5795 H       1  ZINC000347662449    0.0900
     34 H34       -10.9357    3.7808   48.8858 H       1  ZINC000347662449    0.1800
     35 H35        -8.3708    4.2455   49.1333 H       1  ZINC000347662449    0.1800
     36 H36        -7.9487    5.3490   53.0472 H       1  ZINC000347662449    0.1300
     37 H37        -5.7079    5.5313   54.0491 H       1  ZINC000347662449    0.1300
     38 H38        -3.4761    3.3946   54.4152 H       1  ZINC000347662449    0.0800
     39 H39        -2.7790    3.7007   52.8062 H       1  ZINC000347662449    0.0700
     40 H40        -3.3409    5.0618   53.8063 H       1  ZINC000347662449    0.0700
     41 H41        -4.0627    1.1185   52.1705 H       1  ZINC000347662449    0.0800
     42 H42        -4.2067    1.7052   50.4962 H       1  ZINC000347662449    0.0700
     43 H43        -3.0874    2.5044   51.6262 H       1  ZINC000347662449    0.0800
     44 H44        -6.6010    2.0752   50.6503 H       1  ZINC000347662449    0.1300
@<TRIPOS>BOND
     1     1     2    2
     2     1    25    1
     3     1    26    1
     4     2     3    1
     5     2    27    1
     6     3     4    1
     7     3    28    1
     8     3    29    1
     9     4    23   am
    10     4     5    1
    11     5     6    1
    12     5    30    1
    13     5    31    1
    14     6     7    1
    15     6    32    1
    16     6    33    1
    17     7     8    1
    18     7     9    1
    19     7    23    1
    20     9    10    1
    21    10    14    1
    22    10    11    2
    23    11    12    1
    24    12    13    2
    25    12    34    1
    26    13    14    1
    27    13    35    1
    28    14    15    1
    29    15    22   ar
    30    15    16   ar
    31    16    17   ar
    32    16    36    1
    33    17    18   ar
    34    17    37    1
    35    18    19    1
    36    18    20   ar
    37    19    38    1
    38    19    39    1
    39    19    40    1
    40    20    21    1
    41    20    22   ar
    42    21    41    1
    43    21    42    1
    44    21    43    1
    45    22    44    1
    46    23    24    2
@<TRIPOS>SUBSTRUCTURE
     1 ZINC000347662449        1 TEMP              0 ****  ****    0 ROOT


##########                                Name:    ZINC000464706598
##########                DOCK_Rotatable_Bonds:                   4
##########                         Heavy_Atoms:                  26
##########                    Molecular_Weight:             412.286
##########                DOCK_Rotatable_Bonds:                   4
##########                       Formal_Charge:           0.0100001
##########                     HBond_Acceptors:                   5
##########                        HBond_Donors:                   0
##########                         Heavy_Atoms:                  26
##########                          Grid_Score:          -26.724079
##########                     Grid_vdw_energy:          -27.339745
##########                      Grid_es_energy:            0.615666
##########           Internal_energy_repulsive:           58.686104

@<TRIPOS>MOLECULE
ZINC000464706598
 44 47 1 0 0
SMALL
USER_CHARGES


@<TRIPOS>ATOM
      1 O1         -6.8153    1.5515   53.3061 O.2     1  ZINC000464706598   -0.5000
      2 C2         -8.0279    1.6429   53.3026 C.2     1  ZINC000464706598    0.5900
      3 C3         -8.8513    0.5482   53.8474 C.2     1  ZINC000464706598   -0.2800
      4 C4         -9.7247    0.6322   54.9134 C.2     1  ZINC000464706598    0.1300
      5 N5        -10.2714   -0.5854   55.0819 N.pl3   1  ZINC000464706598   -0.3100
      6 C6        -11.2140   -0.9323   56.0597 C.ar    1  ZINC000464706598    0.1700
      7 C7        -11.8790    0.0600   56.7675 C.ar    1  ZINC000464706598   -0.1300
      8 C8        -12.8076   -0.2843   57.7301 C.ar    1  ZINC000464706598   -0.0600
      9 C9        -13.0750   -1.6168   57.9897 C.ar    1  ZINC000464706598   -0.1000
     10 Br10      -14.3466   -2.0847   59.3089 Br      1  ZINC000464706598   -0.0400
     11 C11       -12.4141   -2.6076   57.2855 C.ar    1  ZINC000464706598   -0.0700
     12 C12       -11.4884   -2.2685   56.3182 C.ar    1  ZINC000464706598   -0.1100
     13 N13        -9.7404   -1.4470   54.1155 N.2     1  ZINC000464706598   -0.2800
     14 C14        -8.8988   -0.7821   53.3726 C.2     1  ZINC000464706598    0.0700
     15 N15        -8.6191    2.7475   52.8056 N.am    1  ZINC000464706598   -0.6100
     16 C16       -10.0842    2.8835   52.7963 C.3     1  ZINC000464706598    0.0400
     17 C17       -10.5236    3.2840   51.3832 C.3     1  ZINC000464706598    0.0500
     18 O18        -9.7771    4.4291   50.9650 O.3     1  ZINC000464706598   -0.3700
     19 C19        -8.3681    4.2065   50.8700 C.3     1  ZINC000464706598    0.0500
     20 C20        -7.8180    3.8557   52.2618 C.3     1  ZINC000464706598    0.1600
     21 H21        -7.8922    4.7247   52.9156 H       1  ZINC000464706598    0.0900
     22 C22        -6.3773    3.4295   52.1457 C.ar    1  ZINC000464706598   -0.0500
     23 C23        -5.9787    2.6177   51.1001 C.ar    1  ZINC000464706598   -0.1000
     24 C24        -4.6572    2.2268   50.9935 C.ar    1  ZINC000464706598   -0.1100
     25 C25        -3.7339    2.6480   51.9322 C.ar    1  ZINC000464706598   -0.1200
     26 C26        -4.1322    3.4606   52.9772 C.ar    1  ZINC000464706598   -0.1100
     27 C27        -5.4530    3.8550   53.0814 C.ar    1  ZINC000464706598   -0.1000
     28 H28        -9.9306    1.5129   55.5037 H       1  ZINC000464706598    0.1900
     29 H29       -11.6701    1.1003   56.5657 H       1  ZINC000464706598    0.1400
     30 H30       -13.3251    0.4871   58.2810 H       1  ZINC000464706598    0.1500
     31 H31       -12.6249   -3.6468   57.4897 H       1  ZINC000464706598    0.1500
     32 H32       -10.9730   -3.0422   55.7685 H       1  ZINC000464706598    0.1500
     33 H33        -8.3324   -1.1804   52.5438 H       1  ZINC000464706598    0.2100
     34 H34       -10.5429    1.9327   53.0677 H       1  ZINC000464706598    0.1200
     35 H35       -10.3859    3.6533   53.5065 H       1  ZINC000464706598    0.0800
     36 H36       -10.3385    2.4580   50.6966 H       1  ZINC000464706598    0.0600
     37 H37       -11.5868    3.5240   51.3869 H       1  ZINC000464706598    0.1100
     38 H38        -8.1750    3.3838   50.1814 H       1  ZINC000464706598    0.0600
     39 H39        -7.8805    5.1102   50.5044 H       1  ZINC000464706598    0.1100
     40 H40        -6.7001    2.2886   50.3667 H       1  ZINC000464706598    0.1100
     41 H41        -4.3460    1.5920   50.1771 H       1  ZINC000464706598    0.1200
     42 H42        -2.7015    2.3420   51.8493 H       1  ZINC000464706598    0.1200
     43 H43        -3.4110    3.7894   53.7108 H       1  ZINC000464706598    0.1200
     44 H44        -5.7642    4.4899   53.8978 H       1  ZINC000464706598    0.1100
@<TRIPOS>BOND
     1     1     2    2
     2     2     3    1
     3     2    15   am
     4     3    14    1
     5     3     4    2
     6     4     5    1
     7     4    28    1
     8     5     6    1
     9     5    13    1
    10     6    12   ar
    11     6     7   ar
    12     7     8   ar
    13     7    29    1
    14     8     9   ar
    15     8    30    1
    16     9    10    1
    17     9    11   ar
    18    11    12   ar
    19    11    31    1
    20    12    32    1
    21    13    14    2
    22    14    33    1
    23    15    20    1
    24    15    16    1
    25    16    17    1
    26    16    34    1
    27    16    35    1
    28    17    18    1
    29    17    36    1
    30    17    37    1
    31    18    19    1
    32    19    20    1
    33    19    38    1
    34    19    39    1
    35    20    21    1
    36    20    22    1
    37    22    27   ar
    38    22    23   ar
    39    23    24   ar
    40    23    40    1
    41    24    25   ar
    42    24    41    1
    43    25    26   ar
    44    25    42    1
    45    26    27   ar
    46    26    43    1
    47    27    44    1
@<TRIPOS>SUBSTRUCTURE
     1 ZINC000464706598        1 TEMP              0 ****  ****    0 ROOT


##########                                Name:    ZINC000195331548
##########                DOCK_Rotatable_Bonds:                   7
##########                         Heavy_Atoms:                  26
##########                    Molecular_Weight:             378.539
##########                DOCK_Rotatable_Bonds:                   7
##########                       Formal_Charge:          -0.0100004
##########                     HBond_Acceptors:                   7
##########                        HBond_Donors:                   2
##########                         Heavy_Atoms:                  26
##########                          Grid_Score:          -26.706656
##########                     Grid_vdw_energy:          -26.257298
##########                      Grid_es_energy:           -0.449358
##########           Internal_energy_repulsive:           24.416513

@<TRIPOS>MOLECULE
ZINC000195331548
 56 58 1 0 0
SMALL
USER_CHARGES


@<TRIPOS>ATOM
      1 C1         -4.4110    1.9350   51.4943 C.3     1  ZINC000195331548   -0.0800
      2 C2         -5.7094    2.5049   52.0046 C.2     1  ZINC000195331548    0.0700
      3 C3         -6.7523    2.7548   51.2072 C.2     1  ZINC000195331548   -0.2600
      4 S4         -8.0537    3.4019   52.2032 S.3     1  ZINC000195331548    0.1100
      5 C5         -7.0632    3.2800   53.5915 C.2     1  ZINC000195331548    0.0600
      6 C6         -7.4797    3.6732   54.9855 C.3     1  ZINC000195331548   -0.0100
      7 H7         -8.5138    3.3730   55.1552 H       1  ZINC000195331548    0.1100
      8 C8         -7.3546    5.1906   55.1475 C.3     1  ZINC000195331548   -0.1200
      9 C9         -7.7218    5.5747   56.5836 C.3     1  ZINC000195331548   -0.1100
     10 C10        -6.8077    4.8261   57.5562 C.3     1  ZINC000195331548    0.0500
     11 N11        -6.9647    3.3790   57.3621 N.3     1  ZINC000195331548   -0.5200
     12 C12        -6.2068    2.6273   58.3715 C.3     1  ZINC000195331548    0.0400
     13 C13        -6.8527    1.2828   58.5861 C.2     1  ZINC000195331548    0.5100
     14 O14        -6.1779    0.3322   58.9188 O.2     1  ZINC000195331548   -0.4400
     15 N15        -8.1808    1.1371   58.4082 N.am    1  ZINC000195331548   -0.7000
     16 C16        -8.7583   -0.0656   58.5985 C.2     1  ZINC000195331548    0.6900
     17 O17        -8.0813   -1.0194   58.9292 O.2     1  ZINC000195331548   -0.5300
     18 N18       -10.0865   -0.2110   58.4222 N.am    1  ZINC000195331548   -0.7300
     19 C19       -10.7145   -1.5180   58.6309 C.3     1  ZINC000195331548    0.1700
     20 H20       -10.3342   -1.9610   59.5513 H       1  ZINC000195331548    0.0900
     21 C21       -10.3878   -2.4350   57.4505 C.3     1  ZINC000195331548   -0.1300
     22 C22       -10.9215   -1.8132   56.1586 C.3     1  ZINC000195331548   -0.1200
     23 C23       -12.4379   -1.6393   56.2648 C.3     1  ZINC000195331548   -0.1200
     24 C24       -12.7647   -0.7223   57.4451 C.3     1  ZINC000195331548   -0.1100
     25 C25       -12.2309   -1.3442   58.7371 C.3     1  ZINC000195331548   -0.1000
     26 H26       -12.6981   -2.3166   58.8923 H       1  ZINC000195331548    0.0900
     27 C27       -12.5575   -0.4270   59.9174 C.3     1  ZINC000195331548   -0.1500
     28 C28        -6.5726    2.9797   56.0045 C.3     1  ZINC000195331548    0.0600
     29 N29        -5.9095    2.7974   53.2739 N.2     1  ZINC000195331548   -0.4700
     30 H30        -4.4512    0.8465   51.5346 H       1  ZINC000195331548    0.0800
     31 H31        -4.2538    2.2549   50.4642 H       1  ZINC000195331548    0.0800
     32 H32        -3.5888    2.2915   52.1150 H       1  ZINC000195331548    0.0800
     33 H33        -6.7917    2.5863   50.1412 H       1  ZINC000195331548    0.1800
     34 H34        -6.3291    5.4958   54.9397 H       1  ZINC000195331548    0.0600
     35 H35        -8.0307    5.6881   54.4522 H       1  ZINC000195331548    0.0700
     36 H36        -7.5936    6.6488   56.7171 H       1  ZINC000195331548    0.0800
     37 H37        -8.7597    5.3045   56.7785 H       1  ZINC000195331548    0.0800
     38 H38        -7.0760    5.0864   58.5801 H       1  ZINC000195331548    0.0800
     39 H39        -5.7712    5.1072   57.3698 H       1  ZINC000195331548    0.0400
     40 H40        -6.2020    3.1820   59.3097 H       1  ZINC000195331548    0.1200
     41 H41        -5.1823    2.4873   58.0268 H       1  ZINC000195331548    0.0700
     42 H42        -8.7209    1.8980   58.1431 H       1  ZINC000195331548    0.4100
     43 H43       -10.6267    0.5499   58.1572 H       1  ZINC000195331548    0.4000
     44 H44       -10.8550   -3.4075   57.6058 H       1  ZINC000195331548    0.0700
     45 H45        -9.3075   -2.5590   57.3749 H       1  ZINC000195331548    0.0700
     46 H46       -10.6888   -2.4666   55.3176 H       1  ZINC000195331548    0.0600
     47 H47       -10.4543   -0.8408   56.0033 H       1  ZINC000195331548    0.0600
     48 H48       -12.8182   -1.1963   55.3443 H       1  ZINC000195331548    0.0600
     49 H49       -12.9051   -2.6118   56.4201 H       1  ZINC000195331548    0.0600
     50 H50       -12.2974    0.2502   57.2898 H       1  ZINC000195331548    0.0600
     51 H51       -13.8450   -0.5984   57.5209 H       1  ZINC000195331548    0.0700
     52 H52       -12.0903    0.5454   59.7622 H       1  ZINC000195331548    0.0500
     53 H53       -13.6379   -0.3032   59.9931 H       1  ZINC000195331548    0.0600
     54 H54       -12.1773   -0.8700   60.8379 H       1  ZINC000195331548    0.0600
     55 H55        -5.5372    3.2695   55.8254 H       1  ZINC000195331548    0.0400
     56 H56        -6.6702    1.8990   55.9013 H       1  ZINC000195331548    0.0900
@<TRIPOS>BOND
     1     1     2    1
     2     1    30    1
     3     1    31    1
     4     1    32    1
     5     2    29    1
     6     2     3    2
     7     3     4    1
     8     3    33    1
     9     4     5    1
    10     5     6    1
    11     5    29    2
    12     6     7    1
    13     6    28    1
    14     6     8    1
    15     8     9    1
    16     8    34    1
    17     8    35    1
    18     9    10    1
    19     9    36    1
    20     9    37    1
    21    10    11    1
    22    10    38    1
    23    10    39    1
    24    11    12    1
    25    11    28    1
    26    12    13    1
    27    12    40    1
    28    12    41    1
    29    13    14    2
    30    13    15   am
    31    15    16   am
    32    15    42    1
    33    16    17    2
    34    16    18   am
    35    18    19    1
    36    18    43    1
    37    19    20    1
    38    19    25    1
    39    19    21    1
    40    21    22    1
    41    21    44    1
    42    21    45    1
    43    22    23    1
    44    22    46    1
    45    22    47    1
    46    23    24    1
    47    23    48    1
    48    23    49    1
    49    24    25    1
    50    24    50    1
    51    24    51    1
    52    25    26    1
    53    25    27    1
    54    27    52    1
    55    27    53    1
    56    27    54    1
    57    28    55    1
    58    28    56    1
@<TRIPOS>SUBSTRUCTURE
     1 ZINC000195331548        1 TEMP              0 ****  ****    0 ROOT


##########                                Name:    ZINC001625935330
##########                DOCK_Rotatable_Bonds:                   5
##########                         Heavy_Atoms:                  25
##########                    Molecular_Weight:             327.385
##########                DOCK_Rotatable_Bonds:                   5
##########                       Formal_Charge:           0.0199995
##########                     HBond_Acceptors:                   4
##########                        HBond_Donors:                   1
##########                         Heavy_Atoms:                  25
##########                          Grid_Score:          -26.699886
##########                     Grid_vdw_energy:          -26.959108
##########                      Grid_es_energy:            0.259222
##########           Internal_energy_repulsive:           15.001258

@<TRIPOS>MOLECULE
ZINC001625935330
 42 44 1 0 0
SMALL
USER_CHARGES


@<TRIPOS>ATOM
      1 C1         -6.6660    4.3896   52.4019 C.3     1  ZINC001625935330   -0.1600
      2 C2         -5.9088    3.4074   53.2980 C.3     1  ZINC001625935330    0.1800
      3 H3         -5.8015    3.8342   54.2953 H       1  ZINC001625935330    0.1000
      4 N4         -6.6544    2.1492   53.3829 N.am    1  ZINC001625935330   -0.7100
      5 C5         -7.5622    1.9687   54.3626 C.2     1  ZINC001625935330    0.5800
      6 O6         -7.7611    2.8488   55.1765 O.2     1  ZINC001625935330   -0.5300
      7 C7         -8.3177    0.6968   54.4474 C.ar    1  ZINC001625935330    0.0800
      8 C8         -8.9783    0.3658   55.6254 C.ar    1  ZINC001625935330   -0.1000
      9 C9         -9.6866   -0.8374   55.6879 C.ar    1  ZINC001625935330    0.0000
     10 C10       -10.4074   -1.2332   56.9229 C.ar    1  ZINC001625935330   -0.0600
     11 C11       -11.0308   -2.4771   57.0007 C.ar    1  ZINC001625935330   -0.1000
     12 C12       -11.6994   -2.8402   58.1521 C.ar    1  ZINC001625935330   -0.1200
     13 C13       -11.7515   -1.9721   59.2277 C.ar    1  ZINC001625935330   -0.1100
     14 C14       -11.1344   -0.7360   59.1561 C.ar    1  ZINC001625935330   -0.1200
     15 C15       -10.4586   -0.3647   58.0115 C.ar    1  ZINC001625935330   -0.1000
     16 C16        -9.6984   -1.6575   54.5571 C.ar    1  ZINC001625935330   -0.1400
     17 C17        -9.0148   -1.2545   53.4236 C.ar    1  ZINC001625935330    0.1100
     18 N18        -8.3616   -0.1130   53.3957 N.ar    1  ZINC001625935330   -0.4600
     19 C19        -4.5444    3.1444   52.7146 C.ar    1  ZINC001625935330   -0.0900
     20 C20        -4.4114    2.3098   51.6194 C.ar    1  ZINC001625935330   -0.0800
     21 C21        -3.1623    2.0628   51.0774 C.ar    1  ZINC001625935330   -0.1100
     22 C22        -2.0407    2.6485   51.6263 C.ar    1  ZINC001625935330   -0.0700
     23 C23        -2.1678    3.4924   52.7317 C.ar    1  ZINC001625935330   -0.0200
     24 C24        -1.0077    4.1041   53.3068 C.1     1  ZINC001625935330    0.2500
     25 N25        -0.0873    4.5893   53.7630 N.1     1  ZINC001625935330   -0.4100
     26 C26        -3.4316    3.7411   53.2705 C.ar    1  ZINC001625935330   -0.0600
     27 H27        -6.1112    5.3257   52.3388 H       1  ZINC001625935330    0.0700
     28 H28        -6.7733    3.9629   51.4047 H       1  ZINC001625935330    0.0600
     29 H29        -7.6528    4.5798   52.8238 H       1  ZINC001625935330    0.0700
     30 H30        -6.4949    1.4462   52.7340 H       1  ZINC001625935330    0.4100
     31 H31        -8.9444    1.0275   56.4782 H       1  ZINC001625935330    0.1500
     32 H32       -10.9911   -3.1555   56.1613 H       1  ZINC001625935330    0.1300
     33 H33       -12.1832   -3.8038   58.2133 H       1  ZINC001625935330    0.1300
     34 H34       -12.2761   -2.2601   60.1267 H       1  ZINC001625935330    0.1300
     35 H35       -11.1785   -0.0620   59.9987 H       1  ZINC001625935330    0.1300
     36 H36        -9.9769    0.6004   57.9568 H       1  ZINC001625935330    0.1300
     37 H37       -10.2344   -2.5950   54.5675 H       1  ZINC001625935330    0.1400
     38 H38        -9.0207   -1.8853   52.5469 H       1  ZINC001625935330    0.1700
     39 H39        -5.2863    1.8486   51.1857 H       1  ZINC001625935330    0.1300
     40 H40        -3.0655    1.4096   50.2228 H       1  ZINC001625935330    0.1400
     41 H41        -1.0664    2.4546   51.2026 H       1  ZINC001625935330    0.1400
     42 H42        -3.5368    4.3927   54.1253 H       1  ZINC001625935330    0.1400
@<TRIPOS>BOND
     1     1     2    1
     2     1    27    1
     3     1    28    1
     4     1    29    1
     5     2     3    1
     6     2     4    1
     7     2    19    1
     8     4     5   am
     9     4    30    1
    10     5     6    2
    11     5     7    1
    12     7    18   ar
    13     7     8   ar
    14     8     9   ar
    15     8    31    1
    16     9    10    1
    17     9    16   ar
    18    10    15   ar
    19    10    11   ar
    20    11    12   ar
    21    11    32    1
    22    12    13   ar
    23    12    33    1
    24    13    14   ar
    25    13    34    1
    26    14    15   ar
    27    14    35    1
    28    15    36    1
    29    16    17   ar
    30    16    37    1
    31    17    18   ar
    32    17    38    1
    33    19    26   ar
    34    19    20   ar
    35    20    21   ar
    36    20    39    1
    37    21    22   ar
    38    21    40    1
    39    22    23   ar
    40    22    41    1
    41    23    24    1
    42    23    26   ar
    43    24    25    3
    44    26    42    1
@<TRIPOS>SUBSTRUCTURE
     1 ZINC001625935330        1 TEMP              0 ****  ****    0 ROOT


##########                                Name:    ZINC000863216249
##########                DOCK_Rotatable_Bonds:                   5
##########                         Heavy_Atoms:                  23
##########                    Molecular_Weight:             396.351
##########                DOCK_Rotatable_Bonds:                   5
##########                       Formal_Charge:         -0.00999944
##########                     HBond_Acceptors:                   5
##########                        HBond_Donors:                   1
##########                         Heavy_Atoms:                  23
##########                          Grid_Score:          -26.690634
##########                     Grid_vdw_energy:          -26.075109
##########                      Grid_es_energy:           -0.615523
##########           Internal_energy_repulsive:           27.931837

@<TRIPOS>MOLECULE
ZINC000863216249
 45 48 1 0 0
SMALL
USER_CHARGES


@<TRIPOS>ATOM
      1 S1         -1.6098    1.1815   49.3987 S.2     1  ZINC000863216249   -0.5900
      2 C2         -1.5066    2.1019   50.8385 C.2     1  ZINC000863216249    0.5600
      3 N3         -0.3064    2.5223   51.2851 N.am    1  ZINC000863216249   -0.6800
      4 C4          0.9104    2.1865   50.5416 C.3     1  ZINC000863216249    0.1200
      5 C5          1.9778    3.2510   50.8030 C.3     1  ZINC000863216249    0.0400
      6 N6          3.2112    2.8931   50.0897 N.3     1  ZINC000863216249   -0.5300
      7 C7          2.9891    2.8607   48.6367 C.3     1  ZINC000863216249    0.0000
      8 C8          4.3100    2.5433   47.9309 C.3     1  ZINC000863216249    0.0600
      9 O9          4.8247    1.3049   48.4277 O.3     1  ZINC000863216249   -0.3800
     10 C10         5.0534    1.3014   49.8394 C.3     1  ZINC000863216249    0.0600
     11 C11         3.7400    1.6062   50.5646 C.3     1  ZINC000863216249    0.0200
     12 N12        -2.6261    2.4109   51.5226 N.am    1  ZINC000863216249   -0.5100
     13 C13        -3.9844    2.0117   51.1375 C.3     1  ZINC000863216249    0.1200
     14 C14        -4.8908    2.5996   52.2235 C.3     1  ZINC000863216249   -0.1100
     15 C15        -6.2752    3.1466   51.8978 C.3     1  ZINC000863216249   -0.1500
     16 C16        -6.1290    1.8605   52.7160 C.3     1  ZINC000863216249   -0.1500
     17 C17        -3.9610    3.3096   53.1733 C.ar    1  ZINC000863216249   -0.0700
     18 C18        -4.2069    4.0197   54.3325 C.ar    1  ZINC000863216249   -0.0800
     19 C19        -3.1610    4.5867   55.0364 C.ar    1  ZINC000863216249   -0.1000
     20 C20        -1.8640    4.4418   54.5773 C.ar    1  ZINC000863216249   -0.0700
     21 Br21       -0.4314    5.2159   55.5386 Br      1  ZINC000863216249   -0.0400
     22 C22        -1.6129    3.7337   53.4202 C.ar    1  ZINC000863216249   -0.0900
     23 C23        -2.6629    3.1539   52.7070 C.ar    1  ZINC000863216249    0.1400
     24 H24        -0.2484    3.0471   52.0988 H       1  ZINC000863216249    0.4000
     25 H25         1.2792    1.2142   50.8683 H       1  ZINC000863216249    0.0900
     26 H26         0.6865    2.1506   49.4755 H       1  ZINC000863216249    0.1000
     27 H27         1.6209    4.2180   50.4488 H       1  ZINC000863216249    0.0900
     28 H28         2.1801    3.3077   51.8725 H       1  ZINC000863216249    0.0400
     29 H29         2.2548    2.0914   48.3979 H       1  ZINC000863216249    0.0500
     30 H30         2.6221    3.8312   48.3030 H       1  ZINC000863216249    0.1000
     31 H31         4.1387    2.4619   46.8576 H       1  ZINC000863216249    0.1000
     32 H32         5.0277    3.3402   48.1262 H       1  ZINC000863216249    0.0600
     33 H33         5.4198    0.3218   50.1463 H       1  ZINC000863216249    0.1000
     34 H34         5.7926    2.0621   50.0902 H       1  ZINC000863216249    0.0600
     35 H35         3.9211    1.6609   51.6380 H       1  ZINC000863216249    0.0900
     36 H36         3.0177    0.8168   50.3566 H       1  ZINC000863216249    0.0500
     37 H37        -4.2404    2.4286   50.1634 H       1  ZINC000863216249    0.0900
     38 H38        -4.0696    0.9251   51.1199 H       1  ZINC000863216249    0.0900
     39 H39        -6.5987    4.0444   52.4244 H       1  ZINC000863216249    0.1100
     40 H40        -6.6248    3.0523   50.8697 H       1  ZINC000863216249    0.1100
     41 H41        -6.3823    0.9204   52.2260 H       1  ZINC000863216249    0.1100
     42 H42        -6.3562    1.9125   53.7807 H       1  ZINC000863216249    0.1100
     43 H43        -5.2198    4.1326   54.6898 H       1  ZINC000863216249    0.1400
     44 H44        -3.3558    5.1417   55.9421 H       1  ZINC000863216249    0.1400
     45 H45        -0.5982    3.6242   53.0666 H       1  ZINC000863216249    0.1900
@<TRIPOS>BOND
     1     1     2    2
     2     2     3   am
     3     2    12   am
     4     3     4    1
     5     3    24    1
     6     4     5    1
     7     4    25    1
     8     4    26    1
     9     5     6    1
    10     5    27    1
    11     5    28    1
    12     6    11    1
    13     6     7    1
    14     7     8    1
    15     7    29    1
    16     7    30    1
    17     8     9    1
    18     8    31    1
    19     8    32    1
    20     9    10    1
    21    10    11    1
    22    10    33    1
    23    10    34    1
    24    11    35    1
    25    11    36    1
    26    12    23    1
    27    12    13    1
    28    13    14    1
    29    13    37    1
    30    13    38    1
    31    14    16    1
    32    14    15    1
    33    14    17    1
    34    15    16    1
    35    15    39    1
    36    15    40    1
    37    16    41    1
    38    16    42    1
    39    17    23   ar
    40    17    18   ar
    41    18    19   ar
    42    18    43    1
    43    19    20   ar
    44    19    44    1
    45    20    21    1
    46    20    22   ar
    47    22    23   ar
    48    22    45    1
@<TRIPOS>SUBSTRUCTURE
     1 ZINC000863216249        1 TEMP              0 ****  ****    0 ROOT


##########                                Name:    ZINC000369046711
##########                DOCK_Rotatable_Bonds:                   8
##########                         Heavy_Atoms:                  26
##########                    Molecular_Weight:             367.467
##########                DOCK_Rotatable_Bonds:                   8
##########                       Formal_Charge:        -7.63685e-07
##########                     HBond_Acceptors:                   8
##########                        HBond_Donors:                   1
##########                         Heavy_Atoms:                  26
##########                          Grid_Score:          -26.676771
##########                     Grid_vdw_energy:          -24.353403
##########                      Grid_es_energy:           -2.323369
##########           Internal_energy_repulsive:           19.661783

@<TRIPOS>MOLECULE
ZINC000369046711
 56 58 1 0 0
SMALL
USER_CHARGES


@<TRIPOS>ATOM
      1 C1        -13.1886   -0.2445   54.7434 C.3     1  ZINC000369046711   -0.1800
      2 C2        -11.9527    0.0674   55.5897 C.3     1  ZINC000369046711    0.1400
      3 C3        -12.1102   -0.5640   56.9744 C.3     1  ZINC000369046711   -0.1800
      4 C4        -10.7091   -0.5050   54.9066 C.3     1  ZINC000369046711   -0.1400
      5 O5        -11.8106    1.5059   55.7271 O.3     1  ZINC000369046711   -0.3700
      6 C6        -11.4198    1.9695   56.9292 C.2     1  ZINC000369046711    0.6500
      7 O7        -12.2380    2.4409   57.6939 O.2     1  ZINC000369046711   -0.5700
      8 N8        -10.1210    1.9108   57.2842 N.am    1  ZINC000369046711   -0.7100
      9 C9         -9.6959    2.4137   58.5930 C.3     1  ZINC000369046711    0.1800
     10 H10       -10.5420    2.9002   59.0783 H       1  ZINC000369046711    0.0900
     11 C11        -8.5788    3.4375   58.3945 C.3     1  ZINC000369046711   -0.1300
     12 C12        -7.3961    2.7284   57.7244 C.3     1  ZINC000369046711   -0.1200
     13 C13        -6.8676    1.6636   58.6812 C.3     1  ZINC000369046711   -0.1200
     14 C14        -7.9329    0.6027   58.9654 C.3     1  ZINC000369046711   -0.1000
     15 H15        -8.0797   -0.0671   58.1183 H       1  ZINC000369046711    0.0900
     16 C16        -7.4718   -0.1522   60.2422 C.3     1  ZINC000369046711    0.0400
     17 N17        -8.0813    0.5398   61.3945 N.3     1  ZINC000369046711   -0.5200
     18 C18        -7.0511    1.0236   62.3233 C.3     1  ZINC000369046711    0.1200
     19 C19        -7.4652    0.7136   63.7387 C.2     1  ZINC000369046711    0.2900
     20 N20        -8.5623    0.0997   64.1012 N.2     1  ZINC000369046711   -0.5400
     21 C21        -8.6043   -0.0042   65.4289 C.2     1  ZINC000369046711    0.2000
     22 N22        -7.5298    0.5445   65.9318 N.2     1  ZINC000369046711   -0.3200
     23 N23        -6.7692    1.0143   64.8488 N.pl3   1  ZINC000369046711   -0.3700
     24 C24        -5.4784    1.7039   64.9158 C.3     1  ZINC000369046711    0.1000
     25 C25        -5.4058    2.5263   66.2039 C.3     1  ZINC000369046711    0.0500
     26 F26        -5.5385    1.6769   67.3076 F       1  ZINC000369046711   -0.2000
     27 C27        -8.9086    1.6608   60.8881 C.3     1  ZINC000369046711    0.0500
     28 C28        -9.2431    1.2532   59.4419 C.3     1  ZINC000369046711   -0.1000
     29 H29       -10.0315    0.5006   59.4548 H       1  ZINC000369046711    0.0900
     30 H30       -14.0745    0.1633   55.2300 H       1  ZINC000369046711    0.0900
     31 H31       -13.0764    0.2053   53.7569 H       1  ZINC000369046711    0.0600
     32 H32       -13.2952   -1.3243   54.6403 H       1  ZINC000369046711    0.0700
     33 H33       -12.2168   -1.6439   56.8713 H       1  ZINC000369046711    0.0700
     34 H34       -11.2297   -0.3418   57.5774 H       1  ZINC000369046711    0.0600
     35 H35       -12.9961   -0.1562   57.4610 H       1  ZINC000369046711    0.0900
     36 H36       -10.5969   -0.0551   53.9201 H       1  ZINC000369046711    0.0700
     37 H37        -9.8286   -0.2827   55.5096 H       1  ZINC000369046711    0.0700
     38 H38       -10.8157   -1.5848   54.8035 H       1  ZINC000369046711    0.0800
     39 H39        -9.4676    1.5356   56.6733 H       1  ZINC000369046711    0.4000
     40 H40        -8.9314    4.2480   57.7567 H       1  ZINC000369046711    0.0700
     41 H41        -8.2695    3.8366   59.3605 H       1  ZINC000369046711    0.0800
     42 H42        -7.7269    2.2580   56.7985 H       1  ZINC000369046711    0.0600
     43 H43        -6.6092    3.4511   57.5088 H       1  ZINC000369046711    0.0700
     44 H44        -5.9952    1.1845   58.2368 H       1  ZINC000369046711    0.0700
     45 H45        -6.5759    2.1377   59.6184 H       1  ZINC000369046711    0.0600
     46 H46        -7.8128   -1.1869   60.2064 H       1  ZINC000369046711    0.0800
     47 H47        -6.3850   -0.1206   60.3212 H       1  ZINC000369046711    0.0800
     48 H48        -6.1044    0.5293   62.1052 H       1  ZINC000369046711    0.0800
     49 H49        -6.9339    2.1009   62.2067 H       1  ZINC000369046711    0.1000
     50 H50        -9.3978   -0.4664   65.9974 H       1  ZINC000369046711    0.2200
     51 H51        -4.6732    0.9693   64.9078 H       1  ZINC000369046711    0.1200
     52 H52        -5.3750    2.3657   64.0559 H       1  ZINC000369046711    0.1100
     53 H53        -4.4454    3.0393   66.2537 H       1  ZINC000369046711    0.0900
     54 H54        -6.2110    3.2609   66.2119 H       1  ZINC000369046711    0.0800
     55 H55        -9.8194    1.7605   61.4785 H       1  ZINC000369046711    0.0900
     56 H56        -8.3404    2.5908   60.9003 H       1  ZINC000369046711    0.0600
@<TRIPOS>BOND
     1     1     2    1
     2     1    30    1
     3     1    31    1
     4     1    32    1
     5     2     3    1
     6     2     4    1
     7     2     5    1
     8     3    33    1
     9     3    34    1
    10     3    35    1
    11     4    36    1
    12     4    37    1
    13     4    38    1
    14     5     6    1
    15     6     7    2
    16     6     8   am
    17     8     9    1
    18     8    39    1
    19     9    10    1
    20     9    28    1
    21     9    11    1
    22    11    12    1
    23    11    40    1
    24    11    41    1
    25    12    13    1
    26    12    42    1
    27    12    43    1
    28    13    14    1
    29    13    44    1
    30    13    45    1
    31    14    15    1
    32    14    28    1
    33    14    16    1
    34    16    17    1
    35    16    46    1
    36    16    47    1
    37    17    18    1
    38    17    27    1
    39    18    19    1
    40    18    48    1
    41    18    49    1
    42    19    23    1
    43    19    20    2
    44    20    21    1
    45    21    22    2
    46    21    50    1
    47    22    23    1
    48    23    24    1
    49    24    25    1
    50    24    51    1
    51    24    52    1
    52    25    26    1
    53    25    53    1
    54    25    54    1
    55    27    28    1
    56    27    55    1
    57    27    56    1
    58    28    29    1
@<TRIPOS>SUBSTRUCTURE
     1 ZINC000369046711        1 TEMP              0 ****  ****    0 ROOT


##########                                Name:    ZINC000864477301
##########                DOCK_Rotatable_Bonds:                   6
##########                         Heavy_Atoms:                  26
##########                    Molecular_Weight:             393.891
##########                DOCK_Rotatable_Bonds:                   6
##########                       Formal_Charge:         -0.00999978
##########                     HBond_Acceptors:                   7
##########                        HBond_Donors:                   1
##########                         Heavy_Atoms:                  26
##########                          Grid_Score:          -26.640078
##########                     Grid_vdw_energy:          -26.238489
##########                      Grid_es_energy:           -0.401588
##########           Internal_energy_repulsive:           10.600595

@<TRIPOS>MOLECULE
ZINC000864477301
 46 47 1 0 0
SMALL
USER_CHARGES


@<TRIPOS>ATOM
      1 C1         -8.3953    4.8292   50.0660 C.3     1  ZINC000864477301   -0.1500
      2 C2         -7.8878    3.7284   50.9994 C.3     1  ZINC000864477301    0.0600
      3 O3         -7.1081    4.3232   52.0702 O.3     1  ZINC000864477301   -0.3500
      4 C4         -6.6187    3.4882   53.0072 C.2     1  ZINC000864477301    0.5100
      5 O5         -6.0062    3.9333   53.9571 O.2     1  ZINC000864477301   -0.5000
      6 C6         -6.8268    2.0313   52.8795 C.ar    1  ZINC000864477301   -0.1400
      7 C7         -5.7864    1.2102   52.4407 C.ar    1  ZINC000864477301   -0.0300
      8 C8         -5.9877   -0.1497   52.3237 C.ar    1  ZINC000864477301   -0.1500
      9 C9         -7.2170   -0.6999   52.6396 C.ar    1  ZINC000864477301   -0.0100
     10 C10        -8.2526    0.1082   53.0751 C.ar    1  ZINC000864477301   -0.4900
     11 S11        -9.8143   -0.6033   53.4747 S.o     1  ZINC000864477301    1.3800
     12 O12       -10.7126    0.4857   53.3122 O.2     1  ZINC000864477301   -0.8100
     13 C13        -9.6467   -0.9907   55.2389 C.3     1  ZINC000864477301   -0.4600
     14 H14        -8.8799   -1.7538   55.3720 H       1  ZINC000864477301    0.1400
     15 C15        -9.2469    0.2730   56.0029 C.3     1  ZINC000864477301   -0.1400
     16 C16       -10.9617   -1.5026   55.7679 C.2     1  ZINC000864477301    0.5500
     17 O17       -11.1138   -2.6889   55.9697 O.2     1  ZINC000864477301   -0.5100
     18 N18       -11.9688   -0.6422   56.0167 N.am    1  ZINC000864477301   -0.6800
     19 C19       -13.1903   -1.1177   56.5081 C.ar    1  ZINC000864477301    0.1400
     20 C20       -14.3028   -1.1642   55.6791 C.ar    1  ZINC000864477301   -0.0600
     21 C21       -14.1971   -0.7026   54.2485 C.3     1  ZINC000864477301   -0.1100
     22 C22       -15.5069   -1.6344   56.1668 C.ar    1  ZINC000864477301   -0.1100
     23 C23       -15.6053   -2.0586   57.4789 C.ar    1  ZINC000864477301   -0.1000
     24 C24       -14.4993   -2.0135   58.3082 C.ar    1  ZINC000864477301   -0.1100
     25 C25       -13.2905   -1.5498   57.8254 C.ar    1  ZINC000864477301   -0.0200
     26 Cl26      -11.9024   -1.4939   58.8664 Cl      1  ZINC000864477301   -0.0600
     27 C27        -8.0633    1.4684   53.2026 C.ar    1  ZINC000864477301    0.0100
     28 H28        -9.0203    5.5229   50.6283 H       1  ZINC000864477301    0.0700
     29 H29        -7.5467    5.3663   49.6423 H       1  ZINC000864477301    0.0700
     30 H30        -8.9807    4.3827   49.2622 H       1  ZINC000864477301    0.0800
     31 H31        -8.7363    3.1913   51.4230 H       1  ZINC000864477301    0.0700
     32 H32        -7.2628    3.0347   50.4371 H       1  ZINC000864477301    0.0700
     33 H33        -4.8264    1.6386   52.1931 H       1  ZINC000864477301    0.1400
     34 H34        -5.1837   -0.7860   51.9843 H       1  ZINC000864477301    0.1400
     35 H35        -7.3694   -1.7650   52.5455 H       1  ZINC000864477301    0.1500
     36 H36        -9.1461    0.0402   57.0630 H       1  ZINC000864477301    0.0700
     37 H37        -8.2957    0.6433   55.6203 H       1  ZINC000864477301    0.0700
     38 H38       -10.0137    1.0362   55.8698 H       1  ZINC000864477301    0.0700
     39 H39       -11.8473    0.3065   55.8552 H       1  ZINC000864477301    0.4100
     40 H40       -13.9167   -1.5442   53.6150 H       1  ZINC000864477301    0.0800
     41 H41       -15.1589   -0.3069   53.9224 H       1  ZINC000864477301    0.0700
     42 H42       -13.4391    0.0771   54.1733 H       1  ZINC000864477301    0.0700
     43 H43       -16.3727   -1.6703   55.5222 H       1  ZINC000864477301    0.1400
     44 H44       -16.5478   -2.4257   57.8572 H       1  ZINC000864477301    0.1400
     45 H45       -14.5795   -2.3453   59.3330 H       1  ZINC000864477301    0.1400
     46 H46        -8.8722    2.0979   53.5430 H       1  ZINC000864477301    0.1400
@<TRIPOS>BOND
     1     1     2    1
     2     1    28    1
     3     1    29    1
     4     1    30    1
     5     2     3    1
     6     2    31    1
     7     2    32    1
     8     3     4    1
     9     4     5    2
    10     4     6    1
    11     6    27   ar
    12     6     7   ar
    13     7     8   ar
    14     7    33    1
    15     8     9   ar
    16     8    34    1
    17     9    10   ar
    18     9    35    1
    19    10    11    1
    20    10    27   ar
    21    11    12    2
    22    11    13    1
    23    13    14    1
    24    13    15    1
    25    13    16    1
    26    15    36    1
    27    15    37    1
    28    15    38    1
    29    16    17    2
    30    16    18   am
    31    18    19    1
    32    18    39    1
    33    19    25   ar
    34    19    20   ar
    35    20    21    1
    36    20    22   ar
    37    21    40    1
    38    21    41    1
    39    21    42    1
    40    22    23   ar
    41    22    43    1
    42    23    24   ar
    43    23    44    1
    44    24    25   ar
    45    24    45    1
    46    25    26    1
    47    27    46    1
@<TRIPOS>SUBSTRUCTURE
     1 ZINC000864477301        1 TEMP              0 ****  ****    0 ROOT


##########                                Name:    ZINC000800038938
##########                DOCK_Rotatable_Bonds:                   6
##########                         Heavy_Atoms:                  25
##########                    Molecular_Weight:             386.274
##########                DOCK_Rotatable_Bonds:                   6
##########                       Formal_Charge:           0.0200003
##########                     HBond_Acceptors:                   7
##########                        HBond_Donors:                   0
##########                         Heavy_Atoms:                  25
##########                          Grid_Score:          -26.629244
##########                     Grid_vdw_energy:          -25.651934
##########                      Grid_es_energy:           -0.977310
##########           Internal_energy_repulsive:           10.498484

@<TRIPOS>MOLECULE
ZINC000800038938
 46 48 1 0 0
SMALL
USER_CHARGES


@<TRIPOS>ATOM
      1 C1         -8.4924    0.0329   66.7256 C.3     1  ZINC000800038938    0.0300
      2 O2         -8.6977   -0.0347   65.3130 O.3     1  ZINC000800038938   -0.3800
      3 C3         -7.6757    0.6049   64.5458 C.3     1  ZINC000800038938    0.0900
      4 H4         -6.7152    0.1233   64.7291 H       1  ZINC000800038938    0.0700
      5 C5         -7.5959    2.1005   64.9150 C.3     1  ZINC000800038938   -0.1400
      6 C6         -7.2924    2.8078   63.5708 C.3     1  ZINC000800038938   -0.1400
      7 C7         -8.1408    1.9980   62.5592 C.3     1  ZINC000800038938    0.0900
      8 H8         -9.1801    2.3254   62.5846 H       1  ZINC000800038938    0.0900
      9 O9         -7.5993    2.1330   61.2188 O.3     1  ZINC000800038938   -0.3500
     10 C10        -7.8499    3.2830   60.5733 C.2     1  ZINC000800038938    0.4500
     11 O11        -8.3631    4.2059   61.1605 O.2     1  ZINC000800038938   -0.4800
     12 C12        -7.4914    3.4228   59.1163 C.3     1  ZINC000800038938    0.1500
     13 H13        -7.9834    4.3001   58.6962 H       1  ZINC000800038938    0.1200
     14 C14        -5.9615    3.5552   58.9626 C.3     1  ZINC000800038938   -0.1200
     15 C15        -5.6685    2.7318   57.6806 C.3     1  ZINC000800038938   -0.1300
     16 C16        -6.7009    1.5837   57.8057 C.3     1  ZINC000800038938    0.0900
     17 N17        -7.9045    2.2181   58.3819 N.am    1  ZINC000800038938   -0.6000
     18 C18        -9.1676    1.7649   58.2567 C.2     1  ZINC000800038938    0.5800
     19 O19       -10.0849    2.3706   58.7758 O.2     1  ZINC000800038938   -0.4900
     20 C20        -9.4373    0.5316   57.4886 C.ar    1  ZINC000800038938   -0.1100
     21 C21        -9.4938    0.5721   56.0946 C.ar    1  ZINC000800038938   -0.0700
     22 C22        -9.7462   -0.5838   55.3833 C.ar    1  ZINC000800038938   -0.0400
     23 Cl23       -9.8164   -0.5357   53.6493 Cl      1  ZINC000800038938   -0.0500
     24 C24        -9.9433   -1.7818   56.0496 C.ar    1  ZINC000800038938   -0.0700
     25 C25        -9.8891   -1.8291   57.4307 C.ar    1  ZINC000800038938   -0.1000
     26 C26        -9.6313   -0.6815   58.1545 C.ar    1  ZINC000800038938    0.0100
     27 Cl27       -9.5637   -0.7430   59.8881 Cl      1  ZINC000800038938   -0.0300
     28 C28        -8.0215    0.5385   63.0480 C.3     1  ZINC000800038938   -0.1200
     29 H29        -9.3105   -0.4751   67.2364 H       1  ZINC000800038938    0.0900
     30 H30        -7.5493   -0.4511   66.9793 H       1  ZINC000800038938    0.0400
     31 H31        -8.4609    1.0765   67.0386 H       1  ZINC000800038938    0.0400
     32 H32        -8.5472    2.4446   65.3208 H       1  ZINC000800038938    0.0800
     33 H33        -6.7903    2.2750   65.6283 H       1  ZINC000800038938    0.0800
     34 H34        -7.6156    3.8484   63.6003 H       1  ZINC000800038938    0.0800
     35 H35        -6.2320    2.7383   63.3285 H       1  ZINC000800038938    0.0800
     36 H36        -5.6765    4.5982   58.8246 H       1  ZINC000800038938    0.1000
     37 H37        -5.4489    3.1249   59.8229 H       1  ZINC000800038938    0.0900
     38 H38        -5.8509    3.3254   56.7848 H       1  ZINC000800038938    0.0900
     39 H39        -4.6499    2.3439   57.6897 H       1  ZINC000800038938    0.1000
     40 H40        -6.9263    1.1676   56.8238 H       1  ZINC000800038938    0.0900
     41 H41        -6.3251    0.8063   58.4710 H       1  ZINC000800038938    0.0800
     42 H42        -9.3407    1.5056   55.5736 H       1  ZINC000800038938    0.1500
     43 H43       -10.1403   -2.6831   55.4882 H       1  ZINC000800038938    0.1500
     44 H44       -10.0440   -2.7667   57.9441 H       1  ZINC000800038938    0.1500
     45 H45        -7.2288    0.0259   62.5031 H       1  ZINC000800038938    0.0900
     46 H46        -8.9691    0.0187   62.9063 H       1  ZINC000800038938    0.0900
@<TRIPOS>BOND
     1     1     2    1
     2     1    29    1
     3     1    30    1
     4     1    31    1
     5     2     3    1
     6     3     4    1
     7     3    28    1
     8     3     5    1
     9     5     6    1
    10     5    32    1
    11     5    33    1
    12     6     7    1
    13     6    34    1
    14     6    35    1
    15     7     8    1
    16     7     9    1
    17     7    28    1
    18     9    10    1
    19    10    11    2
    20    10    12    1
    21    12    13    1
    22    12    17    1
    23    12    14    1
    24    14    15    1
    25    14    36    1
    26    14    37    1
    27    15    16    1
    28    15    38    1
    29    15    39    1
    30    16    17    1
    31    16    40    1
    32    16    41    1
    33    17    18   am
    34    18    19    2
    35    18    20    1
    36    20    26   ar
    37    20    21   ar
    38    21    22   ar
    39    21    42    1
    40    22    23    1
    41    22    24   ar
    42    24    25   ar
    43    24    43    1
    44    25    26   ar
    45    25    44    1
    46    26    27    1
    47    28    45    1
    48    28    46    1
@<TRIPOS>SUBSTRUCTURE
     1 ZINC000800038938        1 TEMP              0 ****  ****    0 ROOT


##########                                Name:    ZINC001341052241
##########                DOCK_Rotatable_Bonds:                   7
##########                         Heavy_Atoms:                  24
##########                    Molecular_Weight:             336.478
##########                DOCK_Rotatable_Bonds:                   7
##########                       Formal_Charge:         5.96046e-08
##########                     HBond_Acceptors:                   6
##########                        HBond_Donors:                   0
##########                         Heavy_Atoms:                  24
##########                          Grid_Score:          -26.617825
##########                     Grid_vdw_energy:          -26.206772
##########                      Grid_es_energy:           -0.411052
##########           Internal_energy_repulsive:           20.403582

@<TRIPOS>MOLECULE
ZINC001341052241
 56 58 1 0 0
SMALL
USER_CHARGES


@<TRIPOS>ATOM
      1 C1         -9.8782   -2.3086   55.7750 C.3     1  ZINC001341052241   -0.1700
      2 C2        -10.7876   -1.1697   56.2406 C.3     1  ZINC001341052241    0.1100
      3 N3        -11.0888   -1.3365   57.6646 N.pl3   1  ZINC001341052241   -0.4500
      4 C4        -12.0297   -2.1597   58.2185 C.2     1  ZINC001341052241    0.1800
      5 C5        -12.9630   -3.0784   57.4728 C.3     1  ZINC001341052241    0.1500
      6 O6        -14.0797   -3.4001   58.3042 O.3     1  ZINC001341052241   -0.3700
      7 C7        -15.2834   -2.7152   57.9514 C.3     1  ZINC001341052241    0.0900
      8 C8        -15.6716   -3.0731   56.5155 C.3     1  ZINC001341052241   -0.1400
      9 C9        -16.9603   -2.3399   56.1379 C.3     1  ZINC001341052241   -0.1200
     10 C10       -16.7380   -0.8299   56.2448 C.3     1  ZINC001341052241   -0.1200
     11 C11       -16.3497   -0.4721   57.6807 C.3     1  ZINC001341052241   -0.1200
     12 C12       -15.0610   -1.2053   58.0584 C.3     1  ZINC001341052241   -0.1200
     13 N13       -11.9693   -2.0032   59.5105 N.2     1  ZINC001341052241   -0.2600
     14 N14       -11.0574   -1.1480   59.8088 N.2     1  ZINC001341052241   -0.3100
     15 C15       -10.4889   -0.7022   58.7132 C.2     1  ZINC001341052241    0.3500
     16 N16        -9.4682    0.2318   58.6362 N.3     1  ZINC001341052241   -0.4600
     17 C17        -9.9271    1.5514   59.0886 C.3     1  ZINC001341052241    0.0700
     18 C18        -8.8230    2.5849   58.8539 C.3     1  ZINC001341052241   -0.1100
     19 C19        -7.5680    2.1681   59.6257 C.3     1  ZINC001341052241   -0.0900
     20 C20        -6.4414    3.1650   59.3464 C.3     1  ZINC001341052241    0.0700
     21 O21        -5.9860    3.0047   58.0014 O.3     1  ZINC001341052241   -0.3900
     22 C22        -5.1809    4.0860   57.5276 C.3     1  ZINC001341052241    0.0300
     23 C23        -7.1390    0.7705   59.1704 C.3     1  ZINC001341052241   -0.1100
     24 C24        -8.2918   -0.2104   59.3959 C.3     1  ZINC001341052241    0.0700
     25 H25        -8.9550   -2.2963   56.3542 H       1  ZINC001341052241    0.0600
     26 H26       -10.3860   -3.2619   55.9209 H       1  ZINC001341052241    0.0700
     27 H27        -9.6458   -2.1788   54.7179 H       1  ZINC001341052241    0.0800
     28 H28       -11.7152   -1.1884   55.6684 H       1  ZINC001341052241    0.0900
     29 H29       -10.2839   -0.2157   56.0851 H       1  ZINC001341052241    0.1000
     30 H30       -13.3146   -2.5828   56.5679 H       1  ZINC001341052241    0.0900
     31 H31       -12.4345   -3.9931   57.2041 H       1  ZINC001341052241    0.0700
     32 H32       -16.0832   -3.0136   58.6294 H       1  ZINC001341052241    0.0600
     33 H33       -14.8719   -2.7748   55.8377 H       1  ZINC001341052241    0.0700
     34 H34       -15.8301   -4.1489   56.4394 H       1  ZINC001341052241    0.0700
     35 H35       -17.7601   -2.6383   56.8157 H       1  ZINC001341052241    0.0600
     36 H36       -17.2369   -2.5949   55.1148 H       1  ZINC001341052241    0.0700
     37 H37       -17.6560   -0.3076   55.9757 H       1  ZINC001341052241    0.0600
     38 H38       -15.9381   -0.5316   55.5671 H       1  ZINC001341052241    0.0600
     39 H39       -17.1495   -0.7704   58.3585 H       1  ZINC001341052241    0.0600
     40 H40       -16.1912    0.6037   57.7568 H       1  ZINC001341052241    0.0700
     41 H41       -14.7843   -0.9503   59.0815 H       1  ZINC001341052241    0.0700
     42 H42       -14.2612   -0.9069   57.3806 H       1  ZINC001341052241    0.0700
     43 H43       -10.1645    1.5086   60.1516 H       1  ZINC001341052241    0.0600
     44 H44       -10.8175    1.8377   58.5289 H       1  ZINC001341052241    0.0800
     45 H45        -9.1581    3.5611   59.2040 H       1  ZINC001341052241    0.0800
     46 H46        -8.5947    2.6381   57.7893 H       1  ZINC001341052241    0.0800
     47 H47        -7.7852    2.1536   60.6937 H       1  ZINC001341052241    0.0800
     48 H48        -5.6156    2.9819   60.0338 H       1  ZINC001341052241    0.0500
     49 H49        -6.8119    4.1805   59.4860 H       1  ZINC001341052241    0.0500
     50 H50        -5.7564    5.0109   57.5643 H       1  ZINC001341052241    0.0400
     51 H51        -4.8755    3.8885   56.5000 H       1  ZINC001341052241    0.0900
     52 H52        -4.2964    4.1833   58.1572 H       1  ZINC001341052241    0.0400
     53 H53        -6.8842    0.7953   58.1108 H       1  ZINC001341052241    0.0700
     54 H54        -6.2709    0.4506   59.7467 H       1  ZINC001341052241    0.0800
     55 H55        -8.5369   -0.2449   60.4574 H       1  ZINC001341052241    0.0600
     56 H56        -7.9945   -1.2037   59.0595 H       1  ZINC001341052241    0.0800
@<TRIPOS>BOND
     1     1     2    1
     2     1    25    1
     3     1    26    1
     4     1    27    1
     5     2     3    1
     6     2    28    1
     7     2    29    1
     8     3    15    1
     9     3     4    1
    10     4     5    1
    11     4    13    2
    12     5     6    1
    13     5    30    1
    14     5    31    1
    15     6     7    1
    16     7    12    1
    17     7     8    1
    18     7    32    1
    19     8     9    1
    20     8    33    1
    21     8    34    1
    22     9    10    1
    23     9    35    1
    24     9    36    1
    25    10    11    1
    26    10    37    1
    27    10    38    1
    28    11    12    1
    29    11    39    1
    30    11    40    1
    31    12    41    1
    32    12    42    1
    33    13    14    1
    34    14    15    2
    35    15    16    1
    36    16    24    1
    37    16    17    1
    38    17    18    1
    39    17    43    1
    40    17    44    1
    41    18    19    1
    42    18    45    1
    43    18    46    1
    44    19    20    1
    45    19    23    1
    46    19    47    1
    47    20    21    1
    48    20    48    1
    49    20    49    1
    50    21    22    1
    51    22    50    1
    52    22    51    1
    53    22    52    1
    54    23    24    1
    55    23    53    1
    56    23    54    1
    57    24    55    1
    58    24    56    1
@<TRIPOS>SUBSTRUCTURE
     1 ZINC001341052241        1 TEMP              0 ****  ****    0 ROOT


##########                                Name:    ZINC000119180466
##########                DOCK_Rotatable_Bonds:                  10
##########                         Heavy_Atoms:                  23
##########                    Molecular_Weight:             350.405
##########                DOCK_Rotatable_Bonds:                  10
##########                       Formal_Charge:           0.0299997
##########                     HBond_Acceptors:                   8
##########                        HBond_Donors:                   3
##########                         Heavy_Atoms:                  23
##########                          Grid_Score:          -26.588148
##########                     Grid_vdw_energy:          -24.398293
##########                      Grid_es_energy:           -2.189855
##########           Internal_energy_repulsive:           15.172220

@<TRIPOS>MOLECULE
ZINC000119180466
 44 44 1 0 0
SMALL
USER_CHARGES


@<TRIPOS>ATOM
      1 C1          1.2808    4.8381   60.4519 C.3     1  ZINC000119180466   -0.1300
      2 S2          1.3817    4.6990   58.6460 S.3     1  ZINC000119180466   -0.2200
      3 C3          0.0224    3.5657   58.2475 C.3     1  ZINC000119180466   -0.0700
      4 H4         -0.7980    3.7219   58.9479 H       1  ZINC000119180466    0.1100
      5 C5          0.5152    2.1211   58.3531 C.3     1  ZINC000119180466    0.0800
      6 O6          0.6254    1.7550   59.7300 O.3     1  ZINC000119180466   -0.5600
      7 C7         -0.4652    3.8354   56.8226 C.3     1  ZINC000119180466    0.1900
      8 H8         -0.6279    4.9051   56.6906 H       1  ZINC000119180466    0.1000
      9 C9          0.5880    3.3528   55.8232 C.3     1  ZINC000119180466   -0.1700
     10 N10        -1.7216    3.1182   56.5925 N.am    1  ZINC000119180466   -0.7200
     11 C11        -2.8963    3.6975   56.9109 C.2     1  ZINC000119180466    0.7100
     12 O12        -2.9131    4.8159   57.3876 O.2     1  ZINC000119180466   -0.6000
     13 N13        -4.0522    3.0370   56.7007 N.am    1  ZINC000119180466   -0.7400
     14 C14        -5.3290    3.6673   57.0451 C.3     1  ZINC000119180466    0.2000
     15 H15        -5.1719    4.7303   57.2277 H       1  ZINC000119180466    0.1000
     16 C16        -6.3143    3.4887   55.8882 C.3     1  ZINC000119180466   -0.1600
     17 C17        -5.8892    3.0218   58.2862 C.ar    1  ZINC000119180466   -0.0600
     18 C18        -6.1724    3.7923   59.3984 C.ar    1  ZINC000119180466   -0.1100
     19 C19        -6.6862    3.2001   60.5369 C.ar    1  ZINC000119180466   -0.0600
     20 C20        -6.9171    1.8374   60.5631 C.ar    1  ZINC000119180466   -0.1800
     21 C21        -7.4767    1.1917   61.8044 C.3     1  ZINC000119180466    0.5100
     22 F22        -6.5935    0.2047   62.2552 F       1  ZINC000119180466   -0.1800
     23 F23        -7.6412    2.1603   62.8004 F       1  ZINC000119180466   -0.1800
     24 F24        -8.7147    0.6104   61.5101 F       1  ZINC000119180466   -0.1800
     25 C25        -6.6351    1.0671   59.4505 C.ar    1  ZINC000119180466   -0.0600
     26 C26        -6.1250    1.6599   58.3106 C.ar    1  ZINC000119180466   -0.1100
     27 H27         1.4115    3.8531   60.9000 H       1  ZINC000119180466    0.0800
     28 H28         2.0642    5.5066   60.8091 H       1  ZINC000119180466    0.1000
     29 H29         0.3062    5.2381   60.7316 H       1  ZINC000119180466    0.0800
     30 H30        -0.1935    1.4584   57.8565 H       1  ZINC000119180466    0.0500
     31 H31         1.4907    2.0341   57.8747 H       1  ZINC000119180466    0.0600
     32 H32         0.9326    0.8492   59.8727 H       1  ZINC000119180466    0.3800
     33 H33         0.7508    2.2831   55.9551 H       1  ZINC000119180466    0.0700
     34 H34         0.2406    3.5449   54.8081 H       1  ZINC000119180466    0.0700
     35 H35         1.5229    3.8864   55.9944 H       1  ZINC000119180466    0.0700
     36 H36        -1.7083    2.2265   56.2110 H       1  ZINC000119180466    0.4100
     37 H37        -4.0387    2.1444   56.3214 H       1  ZINC000119180466    0.4000
     38 H38        -7.2643    3.9577   56.1444 H       1  ZINC000119180466    0.0700
     39 H39        -5.9090    3.9557   54.9905 H       1  ZINC000119180466    0.0700
     40 H40        -6.4714    2.4257   55.7056 H       1  ZINC000119180466    0.0600
     41 H41        -5.9920    4.8569   59.3779 H       1  ZINC000119180466    0.1300
     42 H42        -6.9068    3.8020   61.4061 H       1  ZINC000119180466    0.1400
     43 H43        -6.8158    0.0025   59.4708 H       1  ZINC000119180466    0.1400
     44 H44        -5.9046    1.0581   57.4413 H       1  ZINC000119180466    0.1400
@<TRIPOS>BOND
     1     1     2    1
     2     1    27    1
     3     1    28    1
     4     1    29    1
     5     2     3    1
     6     3     4    1
     7     3     5    1
     8     3     7    1
     9     5     6    1
    10     5    30    1
    11     5    31    1
    12     6    32    1
    13     7     8    1
    14     7     9    1
    15     7    10    1
    16     9    33    1
    17     9    34    1
    18     9    35    1
    19    10    11   am
    20    10    36    1
    21    11    12    2
    22    11    13   am
    23    13    14    1
    24    13    37    1
    25    14    15    1
    26    14    16    1
    27    14    17    1
    28    16    38    1
    29    16    39    1
    30    16    40    1
    31    17    26   ar
    32    17    18   ar
    33    18    19   ar
    34    18    41    1
    35    19    20   ar
    36    19    42    1
    37    20    21    1
    38    20    25   ar
    39    21    22    1
    40    21    23    1
    41    21    24    1
    42    25    26   ar
    43    25    43    1
    44    26    44    1
@<TRIPOS>SUBSTRUCTURE
     1 ZINC000119180466        1 TEMP              0 ****  ****    0 ROOT


##########                                Name:    ZINC000676204775
##########                DOCK_Rotatable_Bonds:                   4
##########                         Heavy_Atoms:                  25
##########                    Molecular_Weight:             359.452
##########                DOCK_Rotatable_Bonds:                   4
##########                       Formal_Charge:          0.00999978
##########                     HBond_Acceptors:                   8
##########                        HBond_Donors:                   2
##########                         Heavy_Atoms:                  25
##########                          Grid_Score:          -26.578869
##########                     Grid_vdw_energy:          -26.093237
##########                      Grid_es_energy:           -0.485631
##########           Internal_energy_repulsive:           10.260896

@<TRIPOS>MOLECULE
ZINC000676204775
 46 49 1 0 0
SMALL
USER_CHARGES


@<TRIPOS>ATOM
      1 C1         -3.7022    3.0216   52.4357 C.3     1  ZINC000676204775   -0.1600
      2 C2         -4.9520    2.9211   53.3127 C.3     1  ZINC000676204775    0.1600
      3 C3         -5.7854    4.1951   53.1605 C.3     1  ZINC000676204775   -0.1600
      4 N4         -5.7483    1.7639   52.8972 N.pl3   1  ZINC000676204775   -0.3900
      5 N5         -5.4998    0.9690   51.7735 N.2     1  ZINC000676204775   -0.2500
      6 C6         -6.3911    0.0233   51.6882 C.2     1  ZINC000676204775    0.0900
      7 C7         -7.3072    0.1713   52.8145 C.ar    1  ZINC000676204775   -0.2100
      8 C8         -8.4382   -0.5296   53.2468 C.ar    1  ZINC000676204775    0.0800
      9 C9         -9.0926   -0.1254   54.3745 C.ar    1  ZINC000676204775   -0.7200
     10 S10       -10.5170   -1.0074   54.9204 S.o2    1  ZINC000676204775    2.6900
     11 O11       -10.0929   -2.3410   55.1675 O.2     1  ZINC000676204775   -0.9300
     12 O12       -11.1391   -0.1944   55.9059 O.2     1  ZINC000676204775   -0.9600
     13 N13       -11.5680   -1.0801   53.6427 N.am    1  ZINC000676204775   -1.1100
     14 C14       -12.0806    0.1552   53.0448 C.3     1  ZINC000676204775    0.2400
     15 H15       -11.2584    0.8503   52.8749 H       1  ZINC000676204775    0.1000
     16 C16       -13.1130    0.7940   53.9821 C.3     1  ZINC000676204775   -0.1200
     17 C17       -13.8224    1.9436   53.2631 C.3     1  ZINC000676204775   -0.1200
     18 C18       -14.7679    1.3808   52.1944 C.3     1  ZINC000676204775   -0.0400
     19 C19       -13.9928    0.4004   51.3490 C.2     1  ZINC000676204775   -0.2300
     20 C20       -14.3133   -0.0940   50.1390 C.2     1  ZINC000676204775    0.0600
     21 N21       -13.3231   -0.9352   49.7654 N.pl3   1  ZINC000676204775   -0.4800
     22 N22       -12.3622   -0.9548   50.7877 N.2     1  ZINC000676204775   -0.2400
     23 C23       -12.7618   -0.1577   51.7345 C.2     1  ZINC000676204775    0.0500
     24 C24        -8.6462    0.9746   55.0960 C.ar    1  ZINC000676204775    0.0100
     25 C25        -7.5442    1.6751   54.6939 C.ar    1  ZINC000676204775   -0.1500
     26 C26        -6.8529    1.2829   53.5505 C.ar    1  ZINC000676204775    0.1700
     27 H27        -3.1083    2.1140   52.5441 H       1  ZINC000676204775    0.0600
     28 H28        -3.9984    3.1397   51.3934 H       1  ZINC000676204775    0.0700
     29 H29        -3.1097    3.8826   52.7448 H       1  ZINC000676204775    0.0800
     30 H30        -4.6557    2.8031   54.3550 H       1  ZINC000676204775    0.1000
     31 H31        -6.0817    4.3131   52.1182 H       1  ZINC000676204775    0.0700
     32 H32        -6.6758    4.1235   53.7853 H       1  ZINC000676204775    0.0600
     33 H33        -5.1929    5.0561   53.4696 H       1  ZINC000676204775    0.0800
     34 H34        -6.4432   -0.7350   50.9210 H       1  ZINC000676204775    0.2000
     35 H35        -8.7918   -1.3855   52.6912 H       1  ZINC000676204775    0.1500
     36 H36       -11.8441   -1.9406   53.2901 H       1  ZINC000676204775    0.4200
     37 H37       -13.8464    0.0442   54.2784 H       1  ZINC000676204775    0.0800
     38 H38       -12.6090    1.1774   54.8692 H       1  ZINC000676204775    0.0800
     39 H39       -14.3963    2.5239   53.9855 H       1  ZINC000676204775    0.0700
     40 H40       -13.0813    2.5871   52.7890 H       1  ZINC000676204775    0.0700
     41 H41       -15.6039    0.8721   52.6741 H       1  ZINC000676204775    0.0700
     42 H42       -15.1400    2.1919   51.5687 H       1  ZINC000676204775    0.0700
     43 H43       -15.2008    0.1392   49.5696 H       1  ZINC000676204775    0.1800
     44 H44       -13.2838   -1.4370   48.9362 H       1  ZINC000676204775    0.4400
     45 H45        -9.1771    1.2800   55.9856 H       1  ZINC000676204775    0.1500
     46 H46        -7.2077    2.5284   55.2640 H       1  ZINC000676204775    0.1300
@<TRIPOS>BOND
     1     1     2    1
     2     1    27    1
     3     1    28    1
     4     1    29    1
     5     2     3    1
     6     2     4    1
     7     2    30    1
     8     3    31    1
     9     3    32    1
    10     3    33    1
    11     4    26    1
    12     4     5    1
    13     5     6    2
    14     6     7    1
    15     6    34    1
    16     7    26   ar
    17     7     8   ar
    18     8     9   ar
    19     8    35    1
    20     9    10    1
    21     9    24   ar
    22    10    11    2
    23    10    12    2
    24    10    13   am
    25    13    14    1
    26    13    36    1
    27    14    15    1
    28    14    23    1
    29    14    16    1
    30    16    17    1
    31    16    37    1
    32    16    38    1
    33    17    18    1
    34    17    39    1
    35    17    40    1
    36    18    19    1
    37    18    41    1
    38    18    42    1
    39    19    23    1
    40    19    20    2
    41    20    21    1
    42    20    43    1
    43    21    22    1
    44    21    44    1
    45    22    23    2
    46    24    25   ar
    47    24    45    1
    48    25    26   ar
    49    25    46    1
@<TRIPOS>SUBSTRUCTURE
     1 ZINC000676204775        1 TEMP              0 ****  ****    0 ROOT


##########                                Name:    ZINC000859202493
##########                DOCK_Rotatable_Bonds:                  11
##########                         Heavy_Atoms:                  25
##########                    Molecular_Weight:             382.404
##########                DOCK_Rotatable_Bonds:                  11
##########                       Formal_Charge:          -0.0200009
##########                     HBond_Acceptors:                  10
##########                        HBond_Donors:                   3
##########                         Heavy_Atoms:                  25
##########                          Grid_Score:          -26.578005
##########                     Grid_vdw_energy:          -26.066853
##########                      Grid_es_energy:           -0.511152
##########           Internal_energy_repulsive:            9.592842

@<TRIPOS>MOLECULE
ZINC000859202493
 46 46 1 0 0
SMALL
USER_CHARGES


@<TRIPOS>ATOM
      1 C1        -15.3053   -3.4796   58.9256 C.3     1  ZINC000859202493   -0.1500
      2 C2        -15.8487   -2.4784   57.9043 C.3     1  ZINC000859202493   -0.1200
      3 C3        -14.7929   -1.4056   57.6302 C.3     1  ZINC000859202493   -0.1000
      4 H4        -14.1922   -1.2497   58.5262 H       1  ZINC000859202493    0.0700
      5 C5        -15.4843   -0.0960   57.2455 C.3     1  ZINC000859202493   -0.1600
      6 C6        -13.8888   -1.8610   56.4830 C.3     1  ZINC000859202493   -0.1200
      7 C7        -12.5315   -1.1638   56.5957 C.3     1  ZINC000859202493    0.1600
      8 H8        -12.4695   -0.6416   57.5504 H       1  ZINC000859202493    0.1000
      9 C9        -12.3786   -0.1576   55.4533 C.3     1  ZINC000859202493    0.0500
     10 O10       -11.7125   -0.7824   54.3541 O.3     1  ZINC000859202493   -0.5700
     11 N11       -11.4618   -2.1614   56.5141 N.am    1  ZINC000859202493   -1.1000
     12 S12       -10.7103   -2.6843   57.8941 S.o2    1  ZINC000859202493    2.6900
     13 O13       -11.7396   -3.1238   58.7696 O.2     1  ZINC000859202493   -0.9500
     14 O14        -9.6375   -3.5169   57.4759 O.2     1  ZINC000859202493   -0.9500
     15 C15        -9.9780   -1.2740   58.6555 C.ar    1  ZINC000859202493   -0.6600
     16 C16       -10.0980   -1.0857   60.0200 C.ar    1  ZINC000859202493   -0.0300
     17 C17        -9.5251    0.0202   60.6214 C.ar    1  ZINC000859202493   -0.1100
     18 C18        -8.8307    0.9397   59.8602 C.ar    1  ZINC000859202493   -0.0600
     19 C19        -8.7080    0.7531   58.4894 C.ar    1  ZINC000859202493    0.1200
     20 N20        -8.0047    1.6828   57.7155 N.am    1  ZINC000859202493   -0.6500
     21 C21        -6.6578    1.7125   57.7566 C.2     1  ZINC000859202493    0.4800
     22 O22        -6.0555    0.9333   58.4646 O.2     1  ZINC000859202493   -0.4500
     23 C23        -5.9004    2.7137   56.9231 C.3     1  ZINC000859202493    0.4600
     24 F24        -6.3735    4.0015   57.1971 F       1  ZINC000859202493   -0.1500
     25 F25        -4.5379    2.6420   57.2320 F       1  ZINC000859202493   -0.1600
     26 F26        -6.0867    2.4272   55.5666 F       1  ZINC000859202493   -0.1600
     27 C27        -9.2799   -0.3609   57.8894 C.ar    1  ZINC000859202493   -0.0300
     28 H28       -16.0574   -4.2439   59.1208 H       1  ZINC000859202493    0.0500
     29 H29       -14.4044   -3.9491   58.5304 H       1  ZINC000859202493    0.0500
     30 H30       -15.0668   -2.9592   59.8532 H       1  ZINC000859202493    0.0600
     31 H31       -16.0871   -2.9989   56.9767 H       1  ZINC000859202493    0.0600
     32 H32       -16.7495   -2.0090   58.2994 H       1  ZINC000859202493    0.0600
     33 H33       -14.7321    0.6683   57.0502 H       1  ZINC000859202493    0.0500
     34 H34       -16.0850   -0.2520   56.3494 H       1  ZINC000859202493    0.0600
     35 H35       -16.1284    0.2284   58.0628 H       1  ZINC000859202493    0.0600
     36 H36       -13.7483   -2.9406   56.5377 H       1  ZINC000859202493    0.0800
     37 H37       -14.3520   -1.6027   55.5307 H       1  ZINC000859202493    0.0800
     38 H38       -13.3638    0.1831   55.1349 H       1  ZINC000859202493    0.0600
     39 H39       -11.7925    0.6950   55.7961 H       1  ZINC000859202493    0.0600
     40 H40       -11.4947   -0.1782   53.6313 H       1  ZINC000859202493    0.3800
     41 H41       -11.1938   -2.5159   55.6519 H       1  ZINC000859202493    0.4200
     42 H42       -10.6405   -1.8033   60.6174 H       1  ZINC000859202493    0.1500
     43 H43        -9.6211    0.1649   61.6873 H       1  ZINC000859202493    0.1400
     44 H44        -8.3839    1.8032   60.3304 H       1  ZINC000859202493    0.1400
     45 H45        -8.4864    2.3059   57.1492 H       1  ZINC000859202493    0.4200
     46 H46        -9.1862   -0.5088   56.8237 H       1  ZINC000859202493    0.1500
@<TRIPOS>BOND
     1     1     2    1
     2     1    28    1
     3     1    29    1
     4     1    30    1
     5     2     3    1
     6     2    31    1
     7     2    32    1
     8     3     4    1
     9     3     5    1
    10     3     6    1
    11     5    33    1
    12     5    34    1
    13     5    35    1
    14     6     7    1
    15     6    36    1
    16     6    37    1
    17     7     8    1
    18     7     9    1
    19     7    11    1
    20     9    10    1
    21     9    38    1
    22     9    39    1
    23    10    40    1
    24    11    12   am
    25    11    41    1
    26    12    13    2
    27    12    14    2
    28    12    15    1
    29    15    27   ar
    30    15    16   ar
    31    16    17   ar
    32    16    42    1
    33    17    18   ar
    34    17    43    1
    35    18    19   ar
    36    18    44    1
    37    19    20    1
    38    19    27   ar
    39    20    21   am
    40    20    45    1
    41    21    22    2
    42    21    23    1
    43    23    24    1
    44    23    25    1
    45    23    26    1
    46    27    46    1
@<TRIPOS>SUBSTRUCTURE
     1 ZINC000859202493        1 TEMP              0 ****  ****    0 ROOT


##########                                Name:    ZINC000464867530
##########                DOCK_Rotatable_Bonds:                   8
##########                         Heavy_Atoms:                  30
##########                    Molecular_Weight:              422.49
##########                DOCK_Rotatable_Bonds:                   8
##########                       Formal_Charge:         -0.00999994
##########                     HBond_Acceptors:                   7
##########                        HBond_Donors:                   0
##########                         Heavy_Atoms:                  30
##########                          Grid_Score:          -26.513863
##########                     Grid_vdw_energy:          -26.862076
##########                      Grid_es_energy:            0.348214
##########           Internal_energy_repulsive:           39.220947

@<TRIPOS>MOLECULE
ZINC000464867530
 59 62 1 0 0
SMALL
USER_CHARGES


@<TRIPOS>ATOM
      1 C1        -14.5372   -2.3785   58.7018 C.3     1  ZINC000464867530   -0.1500
      2 C2        -13.9991   -1.0529   58.1596 C.3     1  ZINC000464867530   -0.1400
      3 C3        -13.4484   -1.2653   56.7479 C.3     1  ZINC000464867530    0.0900
      4 N4        -12.0914   -0.7192   56.6659 N.am    1  ZINC000464867530   -0.6100
      5 C5        -10.9603   -1.6070   56.3858 C.3     1  ZINC000464867530    0.0700
      6 C6        -10.4443   -2.2048   57.6963 C.3     1  ZINC000464867530    0.4300
      7 F7        -10.1990   -1.1769   58.6130 F       1  ZINC000464867530   -0.1700
      8 F8        -11.4038   -3.0778   58.2202 F       1  ZINC000464867530   -0.1800
      9 F9         -9.2585   -2.9063   57.4538 F       1  ZINC000464867530   -0.1800
     10 C10       -11.8838    0.6000   56.8482 C.2     1  ZINC000464867530    0.5300
     11 O11       -12.8204    1.3349   57.0801 O.2     1  ZINC000464867530   -0.5100
     12 C12       -10.4880    1.1618   56.7639 C.3     1  ZINC000464867530   -0.1200
     13 H13        -9.7702    0.4002   57.0688 H       1  ZINC000464867530    0.1000
     14 C14       -10.3691    2.3753   57.6887 C.3     1  ZINC000464867530   -0.1200
     15 C15        -8.9428    2.9267   57.6287 C.3     1  ZINC000464867530   -0.1300
     16 C16        -8.6336    3.3774   56.1976 C.3     1  ZINC000464867530    0.1000
     17 N17        -8.8856    2.2551   55.2835 N.am    1  ZINC000464867530   -0.6100
     18 C18        -7.9324    1.8411   54.4252 C.2     1  ZINC000464867530    0.5500
     19 O19        -8.1533    0.9145   53.6746 O.2     1  ZINC000464867530   -0.5300
     20 C20        -6.5923    2.5299   54.3980 C.3     1  ZINC000464867530   -0.1700
     21 H21        -5.8629    2.1683   55.1229 H       1  ZINC000464867530    0.1300
     22 C22        -6.5709    4.0226   54.0574 C.3     1  ZINC000464867530   -0.1300
     23 C23        -6.0685    2.9979   53.0455 C.3     1  ZINC000464867530   -0.0600
     24 C24        -6.8449    2.7112   51.7495 C.3     1  ZINC000464867530   -0.0900
     25 C25        -5.8470    1.8381   50.9569 C.3     1  ZINC000464867530   -0.0800
     26 C26        -4.4789    2.2253   51.4777 C.ar    1  ZINC000464867530   -0.0900
     27 C27        -3.2213    2.0108   50.9405 C.ar    1  ZINC000464867530   -0.1100
     28 C28        -2.0954    2.4592   51.6034 C.ar    1  ZINC000464867530   -0.1100
     29 C29        -2.2239    3.1248   52.8079 C.ar    1  ZINC000464867530   -0.1200
     30 C30        -3.4777    3.3403   53.3460 C.ar    1  ZINC000464867530   -0.1000
     31 C31        -4.6080    2.8924   52.6838 C.ar    1  ZINC000464867530   -0.0700
     32 C32       -10.1960    1.5917   55.3228 C.3     1  ZINC000464867530    0.1300
     33 H33       -15.3336   -2.7405   58.0517 H       1  ZINC000464867530    0.0600
     34 H34       -13.7317   -3.1122   58.7327 H       1  ZINC000464867530    0.0600
     35 H35       -14.9295   -2.2272   59.7075 H       1  ZINC000464867530    0.0600
     36 H36       -14.8046   -0.3192   58.1287 H       1  ZINC000464867530    0.0700
     37 H37       -13.2026   -0.6909   58.8097 H       1  ZINC000464867530    0.0700
     38 H38       -13.4251   -2.3317   56.5238 H       1  ZINC000464867530    0.0900
     39 H39       -14.0890   -0.7565   56.0276 H       1  ZINC000464867530    0.0900
     40 H40       -11.2838   -2.4095   55.7229 H       1  ZINC000464867530    0.1300
     41 H41       -10.1627   -1.0392   55.9066 H       1  ZINC000464867530    0.1200
     42 H42       -11.0701    3.1461   57.3685 H       1  ZINC000464867530    0.0800
     43 H43       -10.6003    2.0766   58.7112 H       1  ZINC000464867530    0.0800
     44 H44        -8.8525    3.7766   58.3053 H       1  ZINC000464867530    0.0900
     45 H45        -8.2391    2.1488   57.9251 H       1  ZINC000464867530    0.0700
     46 H46        -9.2764    4.2166   55.9318 H       1  ZINC000464867530    0.0700
     47 H47        -7.5884    3.6785   56.1270 H       1  ZINC000464867530    0.0900
     48 H48        -7.5261    4.5062   53.8530 H       1  ZINC000464867530    0.1100
     49 H49        -5.8270    4.6426   54.5575 H       1  ZINC000464867530    0.1100
     50 H50        -7.7611    2.1595   51.9600 H       1  ZINC000464867530    0.0700
     51 H51        -7.0617    3.6358   51.2143 H       1  ZINC000464867530    0.0800
     52 H52        -6.0376    0.7814   51.1442 H       1  ZINC000464867530    0.0800
     53 H53        -5.9203    2.0532   49.8908 H       1  ZINC000464867530    0.0800
     54 H54        -3.1200    1.4905   49.9996 H       1  ZINC000464867530    0.1200
     55 H55        -1.1159    2.2897   51.1811 H       1  ZINC000464867530    0.1300
     56 H56        -1.3449    3.4757   53.3280 H       1  ZINC000464867530    0.1300
     57 H57        -3.5765    3.8601   54.2876 H       1  ZINC000464867530    0.1200
     58 H58       -10.1816    0.7152   54.6749 H       1  ZINC000464867530    0.1000
     59 H59       -10.9668    2.2849   54.9858 H       1  ZINC000464867530    0.0800
@<TRIPOS>BOND
     1     1     2    1
     2     1    33    1
     3     1    34    1
     4     1    35    1
     5     2     3    1
     6     2    36    1
     7     2    37    1
     8     3     4    1
     9     3    38    1
    10     3    39    1
    11     4     5    1
    12     4    10   am
    13     5     6    1
    14     5    40    1
    15     5    41    1
    16     6     7    1
    17     6     8    1
    18     6     9    1
    19    10    11    2
    20    10    12    1
    21    12    13    1
    22    12    32    1
    23    12    14    1
    24    14    15    1
    25    14    42    1
    26    14    43    1
    27    15    16    1
    28    15    44    1
    29    15    45    1
    30    16    17    1
    31    16    46    1
    32    16    47    1
    33    17    18   am
    34    17    32    1
    35    18    19    2
    36    18    20    1
    37    20    21    1
    38    20    23    1
    39    20    22    1
    40    22    23    1
    41    22    48    1
    42    22    49    1
    43    23    31    1
    44    23    24    1
    45    24    25    1
    46    24    50    1
    47    24    51    1
    48    25    26    1
    49    25    52    1
    50    25    53    1
    51    26    31   ar
    52    26    27   ar
    53    27    28   ar
    54    27    54    1
    55    28    29   ar
    56    28    55    1
    57    29    30   ar
    58    29    56    1
    59    30    31   ar
    60    30    57    1
    61    32    58    1
    62    32    59    1
@<TRIPOS>SUBSTRUCTURE
     1 ZINC000464867530        1 TEMP              0 ****  ****    0 ROOT


##########                                Name:    ZINC000329637067
##########                DOCK_Rotatable_Bonds:                   5
##########                         Heavy_Atoms:                  26
##########                    Molecular_Weight:             362.429
##########                DOCK_Rotatable_Bonds:                   5
##########                       Formal_Charge:           0.0199998
##########                     HBond_Acceptors:                   8
##########                        HBond_Donors:                   0
##########                         Heavy_Atoms:                  26
##########                          Grid_Score:          -26.508770
##########                     Grid_vdw_energy:          -26.250038
##########                      Grid_es_energy:           -0.258733
##########           Internal_energy_repulsive:           28.675531

@<TRIPOS>MOLECULE
ZINC000329637067
 52 54 1 0 0
SMALL
USER_CHARGES


@<TRIPOS>ATOM
      1 C1         -7.0092    3.9135   54.5213 C.3     1  ZINC000329637067   -0.1300
      2 C2         -6.5509    2.7785   53.6421 C.2     1  ZINC000329637067    0.2200
      3 C3         -5.3759    2.8656   52.9623 C.2     1  ZINC000329637067   -0.2900
      4 C4         -4.9774    1.7964   52.1546 C.2     1  ZINC000329637067    0.2800
      5 C5         -3.6797    1.8685   51.3918 C.3     1  ZINC000329637067   -0.1200
      6 N6         -5.7390    0.7252   52.0622 N.2     1  ZINC000329637067   -0.5500
      7 C7         -6.8915    0.6455   52.7320 C.2     1  ZINC000329637067    0.6400
      8 O8         -7.5781   -0.3571   52.6294 O.2     1  ZINC000329637067   -0.5300
      9 N9         -7.3035    1.6536   53.5233 N.am    1  ZINC000329637067   -0.5000
     10 C10        -8.5716    1.5425   54.2484 C.3     1  ZINC000329637067    0.0700
     11 C11        -9.6995    2.0031   53.3614 C.2     1  ZINC000329637067    0.5100
     12 O12        -9.4583    2.6125   52.3408 O.2     1  ZINC000329637067   -0.5200
     13 N13       -10.9762    1.7377   53.7020 N.am    1  ZINC000329637067   -0.6100
     14 C14       -12.0864    2.1803   52.8475 C.3     1  ZINC000329637067    0.1000
     15 C15       -12.9693    0.9718   52.5208 C.3     1  ZINC000329637067   -0.1400
     16 C16       -13.4083    0.2988   53.8233 C.3     1  ZINC000329637067   -0.1000
     17 C17       -12.1762   -0.1949   54.5848 C.3     1  ZINC000329637067   -0.1200
     18 H18       -11.6191   -0.8942   53.9613 H       1  ZINC000329637067    0.1000
     19 C19       -12.6112   -0.8867   55.8510 C.2     1  ZINC000329637067    0.5300
     20 O20       -13.6605   -0.5833   56.3779 O.2     1  ZINC000329637067   -0.5300
     21 N21       -11.8340   -1.8425   56.3979 N.am    1  ZINC000329637067   -0.6200
     22 C22       -10.5538   -2.2231   55.7801 C.3     1  ZINC000329637067    0.0800
     23 C23        -9.4667   -2.1892   56.8604 C.3     1  ZINC000329637067    0.0500
     24 O24        -9.8899   -2.9730   57.9787 O.3     1  ZINC000329637067   -0.3800
     25 C25       -11.0711   -2.4868   58.6207 C.3     1  ZINC000329637067    0.0500
     26 C26       -12.2377   -2.5318   57.6336 C.3     1  ZINC000329637067    0.0700
     27 C27       -11.2840    0.9951   54.9318 C.3     1  ZINC000329637067    0.1200
     28 H28        -7.1879    3.5421   55.5304 H       1  ZINC000329637067    0.0900
     29 H29        -6.2399    4.6852   54.5490 H       1  ZINC000329637067    0.1000
     30 H30        -7.9314    4.3341   54.1204 H       1  ZINC000329637067    0.0900
     31 H31        -4.7596    3.7486   53.0451 H       1  ZINC000329637067    0.1600
     32 H32        -2.8742    1.4664   52.0063 H       1  ZINC000329637067    0.1000
     33 H33        -3.7639    1.2844   50.4754 H       1  ZINC000329637067    0.0900
     34 H34        -3.4624    2.9071   51.1420 H       1  ZINC000329637067    0.0900
     35 H35        -8.7361    0.5040   54.5356 H       1  ZINC000329637067    0.1200
     36 H36        -8.5348    2.1653   55.1422 H       1  ZINC000329637067    0.1300
     37 H37       -12.6754    2.9316   53.3735 H       1  ZINC000329637067    0.0800
     38 H38       -11.6907    2.6040   51.9244 H       1  ZINC000329637067    0.0900
     39 H39       -13.8485    1.3024   51.9678 H       1  ZINC000329637067    0.0900
     40 H40       -12.4048    0.2616   51.9166 H       1  ZINC000329637067    0.0700
     41 H41       -13.9515    1.0168   54.4378 H       1  ZINC000329637067    0.0800
     42 H42       -14.0567   -0.5469   53.5944 H       1  ZINC000329637067    0.0800
     43 H43       -10.6301   -3.2290   55.3674 H       1  ZINC000329637067    0.0800
     44 H44       -10.3051   -1.5181   54.9868 H       1  ZINC000329637067    0.1000
     45 H45        -8.5405   -2.5996   56.4579 H       1  ZINC000329637067    0.1100
     46 H46        -9.3017   -1.1600   57.1789 H       1  ZINC000329637067    0.0600
     47 H47       -11.2992   -3.1111   59.4845 H       1  ZINC000329637067    0.1100
     48 H48       -10.9119   -1.4586   58.9455 H       1  ZINC000329637067    0.0600
     49 H49       -13.1048   -2.0337   58.0671 H       1  ZINC000329637067    0.1000
     50 H50       -12.4853   -3.5685   57.4050 H       1  ZINC000329637067    0.0800
     51 H51       -10.3594    0.6385   55.3860 H       1  ZINC000329637067    0.1000
     52 H52       -11.8056    1.6522   55.6277 H       1  ZINC000329637067    0.0800
@<TRIPOS>BOND
     1     1     2    1
     2     1    28    1
     3     1    29    1
     4     1    30    1
     5     2     9    1
     6     2     3    2
     7     3     4    1
     8     3    31    1
     9     4     5    1
    10     4     6    2
    11     5    32    1
    12     5    33    1
    13     5    34    1
    14     6     7    1
    15     7     8    2
    16     7     9   am
    17     9    10    1
    18    10    11    1
    19    10    35    1
    20    10    36    1
    21    11    12    2
    22    11    13   am
    23    13    27    1
    24    13    14    1
    25    14    15    1
    26    14    37    1
    27    14    38    1
    28    15    16    1
    29    15    39    1
    30    15    40    1
    31    16    17    1
    32    16    41    1
    33    16    42    1
    34    17    18    1
    35    17    19    1
    36    17    27    1
    37    19    20    2
    38    19    21   am
    39    21    26    1
    40    21    22    1
    41    22    23    1
    42    22    43    1
    43    22    44    1
    44    23    24    1
    45    23    45    1
    46    23    46    1
    47    24    25    1
    48    25    26    1
    49    25    47    1
    50    25    48    1
    51    26    49    1
    52    26    50    1
    53    27    51    1
    54    27    52    1
@<TRIPOS>SUBSTRUCTURE
     1 ZINC000329637067        1 TEMP              0 ****  ****    0 ROOT


##########                                Name:    ZINC000171059239
##########                DOCK_Rotatable_Bonds:                   8
##########                         Heavy_Atoms:                  25
##########                    Molecular_Weight:              333.39
##########                DOCK_Rotatable_Bonds:                   8
##########                       Formal_Charge:         1.10269e-06
##########                     HBond_Acceptors:                   5
##########                        HBond_Donors:                   4
##########                         Heavy_Atoms:                  25
##########                          Grid_Score:          -26.487999
##########                     Grid_vdw_energy:          -27.702106
##########                      Grid_es_energy:            1.214107
##########           Internal_energy_repulsive:            9.156320

@<TRIPOS>MOLECULE
ZINC000171059239
 44 46 1 0 0
SMALL
USER_CHARGES


@<TRIPOS>ATOM
      1 N1         -9.2023   -3.3287   56.0494 N.am    1  ZINC000171059239   -0.8500
      2 C2        -10.4251   -2.9434   56.4647 C.2     1  ZINC000171059239    0.5600
      3 O3        -11.0414   -3.6280   57.2578 O.2     1  ZINC000171059239   -0.5400
      4 C4        -11.0173   -1.6880   55.9553 C.ar    1  ZINC000171059239   -0.1400
      5 C5        -12.2947   -1.3002   56.3618 C.ar    1  ZINC000171059239   -0.0900
      6 C6        -12.8413   -0.1273   55.8830 C.ar    1  ZINC000171059239   -0.1200
      7 C7        -12.1260    0.6634   55.0015 C.ar    1  ZINC000171059239   -0.0800
      8 C8        -10.8590    0.2844   54.5940 C.ar    1  ZINC000171059239   -0.0900
      9 C9        -10.0874    1.1517   53.6332 C.3     1  ZINC000171059239   -0.0900
     10 C10        -8.5895    1.0163   53.9141 C.3     1  ZINC000171059239    0.1400
     11 N11        -7.8627    2.0747   53.2084 N.am    1  ZINC000171059239   -0.7400
     12 C12        -6.5484    1.9307   52.9470 C.2     1  ZINC000171059239    0.7000
     13 O13        -5.9663    0.9218   53.2955 O.2     1  ZINC000171059239   -0.5700
     14 N14        -5.8794    2.9051   52.2993 N.am    1  ZINC000171059239   -0.6800
     15 C15        -4.5179    2.7559   52.0285 C.ar    1  ZINC000171059239    0.1700
     16 C16        -3.5588    3.4451   52.8007 C.ar    1  ZINC000171059239   -0.0600
     17 C17        -3.9426    4.2918   53.8524 C.ar    1  ZINC000171059239   -0.1100
     18 C18        -2.9900    4.9410   54.5770 C.ar    1  ZINC000171059239   -0.1100
     19 C19        -1.6361    4.7780   54.2900 C.ar    1  ZINC000171059239   -0.1200
     20 C20        -1.2275    3.9653   53.2776 C.ar    1  ZINC000171059239   -0.1000
     21 C21        -2.1826    3.2784   52.5083 C.ar    1  ZINC000171059239   -0.0400
     22 C22        -1.7970    2.4308   51.4560 C.ar    1  ZINC000171059239   -0.1200
     23 C23        -2.7438    1.7775   50.7274 C.ar    1  ZINC000171059239   -0.0900
     24 C24        -4.0982    1.9297   51.0083 C.ar    1  ZINC000171059239   -0.1200
     25 C25       -10.2985   -0.8827   55.0701 C.ar    1  ZINC000171059239   -0.0500
     26 H26        -8.8133   -4.1517   56.3845 H       1  ZINC000171059239    0.4100
     27 H27        -8.7127   -2.7850   55.4126 H       1  ZINC000171059239    0.4000
     28 H28       -12.8544   -1.9171   57.0493 H       1  ZINC000171059239    0.1300
     29 H29       -13.8298    0.1740   56.1967 H       1  ZINC000171059239    0.1300
     30 H30       -12.5585    1.5804   54.6294 H       1  ZINC000171059239    0.1300
     31 H31       -10.2955    0.8357   52.6109 H       1  ZINC000171059239    0.0800
     32 H32       -10.3883    2.1916   53.7604 H       1  ZINC000171059239    0.0800
     33 H33        -8.4112    1.1054   54.9857 H       1  ZINC000171059239    0.0700
     34 H34        -8.2414    0.0433   53.5674 H       1  ZINC000171059239    0.0700
     35 H35        -8.3275    2.8791   52.9293 H       1  ZINC000171059239    0.4000
     36 H36        -6.3439    3.7100   52.0213 H       1  ZINC000171059239    0.4100
     37 H37        -4.9883    4.4279   54.0856 H       1  ZINC000171059239    0.1200
     38 H38        -3.2880    5.5917   55.3857 H       1  ZINC000171059239    0.1200
     39 H39        -0.9002    5.3049   54.8793 H       1  ZINC000171059239    0.1200
     40 H40        -0.1747    3.8489   53.0663 H       1  ZINC000171059239    0.1300
     41 H41        -0.7504    2.2978   51.2251 H       1  ZINC000171059239    0.1300
     42 H42        -2.4384    1.1280   49.9204 H       1  ZINC000171059239    0.1300
     43 H43        -4.8292    1.4001   50.4155 H       1  ZINC000171059239    0.1400
     44 H44        -9.3095   -1.1772   54.7516 H       1  ZINC000171059239    0.1400
@<TRIPOS>BOND
     1     1     2   am
     2     1    26    1
     3     1    27    1
     4     2     3    2
     5     2     4    1
     6     4    25   ar
     7     4     5   ar
     8     5     6   ar
     9     5    28    1
    10     6     7   ar
    11     6    29    1
    12     7     8   ar
    13     7    30    1
    14     8     9    1
    15     8    25   ar
    16     9    10    1
    17     9    31    1
    18     9    32    1
    19    10    11    1
    20    10    33    1
    21    10    34    1
    22    11    12   am
    23    11    35    1
    24    12    13    2
    25    12    14   am
    26    14    15    1
    27    14    36    1
    28    15    24   ar
    29    15    16   ar
    30    16    21   ar
    31    16    17   ar
    32    17    18   ar
    33    17    37    1
    34    18    19   ar
    35    18    38    1
    36    19    20   ar
    37    19    39    1
    38    20    21   ar
    39    20    40    1
    40    21    22   ar
    41    22    23   ar
    42    22    41    1
    43    23    24   ar
    44    23    42    1
    45    24    43    1
    46    25    44    1
@<TRIPOS>SUBSTRUCTURE
     1 ZINC000171059239        1 TEMP              0 ****  ****    0 ROOT


##########                                Name:    ZINC000970996691
##########                DOCK_Rotatable_Bonds:                   7
##########                         Heavy_Atoms:                  24
##########                    Molecular_Weight:             334.462
##########                DOCK_Rotatable_Bonds:                   7
##########                       Formal_Charge:          -0.0199999
##########                     HBond_Acceptors:                   6
##########                        HBond_Donors:                   0
##########                         Heavy_Atoms:                  24
##########                          Grid_Score:          -26.468559
##########                     Grid_vdw_energy:          -27.045618
##########                      Grid_es_energy:            0.577059
##########           Internal_energy_repulsive:           11.327839

@<TRIPOS>MOLECULE
ZINC000970996691
 54 56 1 0 0
SMALL
USER_CHARGES


@<TRIPOS>ATOM
      1 C1         -3.6550    2.6643   67.1913 C.3     1  ZINC000970996691   -0.1500
      2 C2         -4.3341    1.9644   66.0125 C.3     1  ZINC000970996691   -0.1200
      3 C3         -5.8471    2.1769   66.0961 C.3     1  ZINC000970996691   -0.0300
      4 C4         -6.5160    1.4870   64.9352 C.2     1  ZINC000970996691    0.1800
      5 N5         -6.7658    2.0056   63.7570 N.2     1  ZINC000970996691   -0.4700
      6 C6         -7.3674    1.0307   63.0525 C.2     1  ZINC000970996691    0.1800
      7 C7         -7.8545    1.1290   61.6297 C.3     1  ZINC000970996691    0.1500
      8 N8         -9.0874    0.3447   61.4791 N.3     1  ZINC000970996691   -0.5200
      9 C9        -10.1698    0.9023   62.3010 C.3     1  ZINC000970996691    0.0200
     10 C10        -9.4882    0.2597   60.0682 C.3     1  ZINC000970996691    0.0700
     11 H11        -9.7641    1.2413   59.6829 H       1  ZINC000970996691    0.0600
     12 C12        -8.3658   -0.3797   59.2089 C.3     1  ZINC000970996691   -0.1300
     13 C13        -9.1442   -0.9989   58.0290 C.3     1  ZINC000970996691    0.1000
     14 N14       -10.5304   -1.1972   58.4766 N.am    1  ZINC000970996691   -0.6200
     15 C15       -11.5331   -1.6997   57.7292 C.2     1  ZINC000970996691    0.5300
     16 O16       -11.3260   -2.0324   56.5814 O.2     1  ZINC000970996691   -0.5300
     17 C17       -12.9116   -1.8481   58.3197 C.3     1  ZINC000970996691   -0.1000
     18 C18       -13.7088   -0.5639   58.0830 C.3     1  ZINC000970996691   -0.1100
     19 C19       -15.1084   -0.7146   58.6826 C.3     1  ZINC000970996691   -0.1200
     20 C20       -15.8251   -1.8900   58.0151 C.3     1  ZINC000970996691   -0.1200
     21 C21       -15.0280   -3.1744   58.2517 C.3     1  ZINC000970996691   -0.1200
     22 C22       -13.6284   -3.0236   57.6522 C.3     1  ZINC000970996691   -0.1000
     23 C23       -10.6427   -0.7557   59.8792 C.3     1  ZINC000970996691    0.1200
     24 N24        -7.4513   -0.0118   63.8237 N.2     1  ZINC000970996691   -0.3800
     25 O25        -6.9626    0.2276   64.9079 O.3     1  ZINC000970996691    0.0800
     26 H26        -3.8746    3.7314   67.1559 H       1  ZINC000970996691    0.0600
     27 H27        -4.0294    2.2472   68.1263 H       1  ZINC000970996691    0.0600
     28 H28        -2.5772    2.5130   67.1319 H       1  ZINC000970996691    0.0600
     29 H29        -3.9598    2.3816   65.0776 H       1  ZINC000970996691    0.0700
     30 H30        -4.1146    0.8974   66.0479 H       1  ZINC000970996691    0.0700
     31 H31        -6.2213    1.7602   67.0311 H       1  ZINC000970996691    0.1100
     32 H32        -6.0666    3.2439   66.0602 H       1  ZINC000970996691    0.1000
     33 H33        -8.0551    2.1721   61.3856 H       1  ZINC000970996691    0.0700
     34 H34        -7.0910    0.7387   60.9567 H       1  ZINC000970996691    0.1100
     35 H35       -10.3685    1.9287   61.9925 H       1  ZINC000970996691    0.0300
     36 H36       -11.0707    0.3029   62.1707 H       1  ZINC000970996691    0.0800
     37 H37        -9.8731    0.8891   63.3499 H       1  ZINC000970996691    0.0700
     38 H38        -7.6700    0.3811   58.8550 H       1  ZINC000970996691    0.0800
     39 H39        -7.8410   -1.1515   59.7722 H       1  ZINC000970996691    0.0900
     40 H40        -9.1235   -0.3217   57.1752 H       1  ZINC000970996691    0.0700
     41 H41        -8.7024   -1.9572   57.7555 H       1  ZINC000970996691    0.0700
     42 H42       -12.8301   -2.0331   59.3907 H       1  ZINC000970996691    0.0900
     43 H43       -13.1981    0.2736   58.5586 H       1  ZINC000970996691    0.0700
     44 H44       -13.7903   -0.3789   57.0120 H       1  ZINC000970996691    0.0700
     45 H45       -15.0269   -0.8996   59.7536 H       1  ZINC000970996691    0.0600
     46 H46       -15.6762    0.2004   58.5140 H       1  ZINC000970996691    0.0700
     47 H47       -16.8223   -1.9974   58.4422 H       1  ZINC000970996691    0.0600
     48 H48       -15.9066   -1.7050   56.9440 H       1  ZINC000970996691    0.0600
     49 H49       -14.9465   -3.3593   59.3228 H       1  ZINC000970996691    0.0600
     50 H50       -15.5387   -4.0117   57.7762 H       1  ZINC000970996691    0.0700
     51 H51       -13.7099   -2.8386   56.5811 H       1  ZINC000970996691    0.0800
     52 H52       -13.0605   -3.9386   57.8207 H       1  ZINC000970996691    0.0600
     53 H53       -10.5170   -1.6020   60.5545 H       1  ZINC000970996691    0.0800
     54 H54       -11.6052   -0.2732   60.0492 H       1  ZINC000970996691    0.0800
@<TRIPOS>BOND
     1     1     2    1
     2     1    26    1
     3     1    27    1
     4     1    28    1
     5     2     3    1
     6     2    29    1
     7     2    30    1
     8     3     4    1
     9     3    31    1
    10     3    32    1
    11     4    25    1
    12     4     5    2
    13     5     6    1
    14     6     7    1
    15     6    24    2
    16     7     8    1
    17     7    33    1
    18     7    34    1
    19     8     9    1
    20     8    10    1
    21     9    35    1
    22     9    36    1
    23     9    37    1
    24    10    11    1
    25    10    23    1
    26    10    12    1
    27    12    13    1
    28    12    38    1
    29    12    39    1
    30    13    14    1
    31    13    40    1
    32    13    41    1
    33    14    15   am
    34    14    23    1
    35    15    16    2
    36    15    17    1
    37    17    22    1
    38    17    18    1
    39    17    42    1
    40    18    19    1
    41    18    43    1
    42    18    44    1
    43    19    20    1
    44    19    45    1
    45    19    46    1
    46    20    21    1
    47    20    47    1
    48    20    48    1
    49    21    22    1
    50    21    49    1
    51    21    50    1
    52    22    51    1
    53    22    52    1
    54    23    53    1
    55    23    54    1
    56    24    25    1
@<TRIPOS>SUBSTRUCTURE
     1 ZINC000970996691        1 TEMP              0 ****  ****    0 ROOT


##########                                Name:    ZINC001074839487
##########                DOCK_Rotatable_Bonds:                   7
##########                         Heavy_Atoms:                  25
##########                    Molecular_Weight:             344.454
##########                DOCK_Rotatable_Bonds:                   7
##########                       Formal_Charge:          -0.0500005
##########                     HBond_Acceptors:                   5
##########                        HBond_Donors:                   1
##########                         Heavy_Atoms:                  25
##########                          Grid_Score:          -26.424702
##########                     Grid_vdw_energy:          -26.476721
##########                      Grid_es_energy:            0.052020
##########           Internal_energy_repulsive:           91.341431

@<TRIPOS>MOLECULE
ZINC001074839487
 53 55 1 0 0
SMALL
USER_CHARGES


@<TRIPOS>ATOM
      1 C1         -4.1417    2.0336   51.3858 C.3     1  ZINC001074839487   -0.1500
      2 C2         -5.6023    1.6062   51.2276 C.3     1  ZINC001074839487   -0.1300
      3 C3         -6.4772    2.4153   52.1873 C.3     1  ZINC001074839487   -0.1100
      4 C4         -6.1257    2.0482   53.6304 C.3     1  ZINC001074839487   -0.1400
      5 C5         -7.1833    2.5885   54.5580 C.2     1  ZINC001074839487    0.5100
      6 O6         -7.9580    3.4356   54.1666 O.2     1  ZINC001074839487   -0.5400
      7 N7         -7.2685    2.1303   55.8226 N.am    1  ZINC001074839487   -0.7300
      8 C8         -8.2954    2.6568   56.7249 C.3     1  ZINC001074839487    0.1400
      9 H9         -8.4570    3.7139   56.5138 H       1  ZINC001074839487    0.0900
     10 C10        -9.6024    1.8891   56.5132 C.3     1  ZINC001074839487   -0.1500
     11 C11        -9.3633    0.3992   56.7775 C.3     1  ZINC001074839487    0.0700
     12 N12        -8.7827    0.2440   58.1182 N.am    1  ZINC001074839487   -0.6000
     13 C13        -9.3478   -0.5835   59.0196 C.2     1  ZINC001074839487    0.5600
     14 O14        -8.8578   -0.7034   60.1255 O.2     1  ZINC001074839487   -0.5200
     15 C15       -10.5635   -1.3455   58.6633 C.ar    1  ZINC001074839487   -0.1300
     16 C16       -10.4562   -2.5523   57.9706 C.ar    1  ZINC001074839487   -0.1000
     17 C17       -11.5945   -3.2598   57.6403 C.ar    1  ZINC001074839487   -0.1000
     18 C18       -12.8383   -2.7752   57.9941 C.ar    1  ZINC001074839487   -0.1100
     19 C19       -14.2384   -3.3034   57.7822 C.3     1  ZINC001074839487    0.0900
     20 O20       -15.1193   -2.1840   57.9884 O.3     1  ZINC001074839487   -0.3600
     21 C21       -14.4245   -1.3297   58.9153 C.3     1  ZINC001074839487    0.0900
     22 C22       -12.9518   -1.5755   58.6830 C.ar    1  ZINC001074839487   -0.1400
     23 C23       -11.8239   -0.8634   59.0233 C.ar    1  ZINC001074839487   -0.0400
     24 C24        -7.5748    1.0083   58.4578 C.3     1  ZINC001074839487    0.1500
     25 H25        -6.7395    0.6607   57.8498 H       1  ZINC001074839487    0.0700
     26 C26        -7.2477    0.8187   59.9404 C.3     1  ZINC001074839487   -0.1400
     27 C27        -7.8338    2.4914   58.1747 C.3     1  ZINC001074839487   -0.1400
     28 H28        -4.0468    3.0949   51.1567 H       1  ZINC001074839487    0.0500
     29 H29        -3.5184    1.4571   50.7022 H       1  ZINC001074839487    0.0500
     30 H30        -3.8193    1.8529   52.4113 H       1  ZINC001074839487    0.0500
     31 H31        -5.9247    1.7868   50.2022 H       1  ZINC001074839487    0.0600
     32 H32        -5.6972    0.5448   51.4568 H       1  ZINC001074839487    0.0600
     33 H33        -6.3012    3.4794   52.0299 H       1  ZINC001074839487    0.0700
     34 H34        -7.5270    2.1890   52.0002 H       1  ZINC001074839487    0.0700
     35 H35        -6.0766    0.9637   53.7277 H       1  ZINC001074839487    0.0900
     36 H36        -5.1594    2.4804   53.8901 H       1  ZINC001074839487    0.0900
     37 H37        -6.6496    1.4519   56.1353 H       1  ZINC001074839487    0.4000
     38 H38       -10.3599    2.2637   57.2015 H       1  ZINC001074839487    0.0800
     39 H39        -9.9428    2.0265   55.4869 H       1  ZINC001074839487    0.0800
     40 H40       -10.3104   -0.1377   56.7250 H       1  ZINC001074839487    0.1200
     41 H41        -8.6739    0.0020   56.0325 H       1  ZINC001074839487    0.0700
     42 H42        -9.4838   -2.9324   57.6939 H       1  ZINC001074839487    0.1500
     43 H43       -11.5123   -4.1940   57.1047 H       1  ZINC001074839487    0.1400
     44 H44       -14.3463   -3.6842   56.7665 H       1  ZINC001074839487    0.1000
     45 H45       -14.4561   -4.0905   58.5041 H       1  ZINC001074839487    0.0800
     46 H46       -14.6668   -0.2856   58.7177 H       1  ZINC001074839487    0.1000
     47 H47       -14.6919   -1.5907   59.9393 H       1  ZINC001074839487    0.0800
     48 H48       -11.9136    0.0675   59.5634 H       1  ZINC001074839487    0.1400
     49 H49        -6.9599   -0.2173   60.1193 H       1  ZINC001074839487    0.0800
     50 H50        -6.4250    1.4776   60.2181 H       1  ZINC001074839487    0.0500
     51 H51        -8.1253    1.0607   60.5399 H       1  ZINC001074839487    0.0700
     52 H52        -6.9156    3.0574   58.3309 H       1  ZINC001074839487    0.0900
     53 H53        -8.6081    2.8603   58.8473 H       1  ZINC001074839487    0.0900
@<TRIPOS>BOND
     1     1     2    1
     2     1    28    1
     3     1    29    1
     4     1    30    1
     5     2     3    1
     6     2    31    1
     7     2    32    1
     8     3     4    1
     9     3    33    1
    10     3    34    1
    11     4     5    1
    12     4    35    1
    13     4    36    1
    14     5     6    2
    15     5     7   am
    16     7     8    1
    17     7    37    1
    18     8     9    1
    19     8    27    1
    20     8    10    1
    21    10    11    1
    22    10    38    1
    23    10    39    1
    24    11    12    1
    25    11    40    1
    26    11    41    1
    27    12    13   am
    28    12    24    1
    29    13    14    2
    30    13    15    1
    31    15    23   ar
    32    15    16   ar
    33    16    17   ar
    34    16    42    1
    35    17    18   ar
    36    17    43    1
    37    18    22   ar
    38    18    19    1
    39    19    20    1
    40    19    44    1
    41    19    45    1
    42    20    21    1
    43    21    22    1
    44    21    46    1
    45    21    47    1
    46    22    23   ar
    47    23    48    1
    48    24    25    1
    49    24    26    1
    50    24    27    1
    51    26    49    1
    52    26    50    1
    53    26    51    1
    54    27    52    1
    55    27    53    1
@<TRIPOS>SUBSTRUCTURE
     1 ZINC001074839487        1 TEMP              0 ****  ****    0 ROOT


##########                                Name:    ZINC000842947763
##########                DOCK_Rotatable_Bonds:                   7
##########                         Heavy_Atoms:                  24
##########                    Molecular_Weight:             365.373
##########                DOCK_Rotatable_Bonds:                   7
##########                       Formal_Charge:          0.00999997
##########                     HBond_Acceptors:                   9
##########                        HBond_Donors:                   0
##########                         Heavy_Atoms:                  24
##########                          Grid_Score:          -26.412125
##########                     Grid_vdw_energy:          -25.969009
##########                      Grid_es_energy:           -0.443115
##########           Internal_energy_repulsive:           36.980637

@<TRIPOS>MOLECULE
ZINC000842947763
 42 43 1 0 0
SMALL
USER_CHARGES


@<TRIPOS>ATOM
      1 C1         -0.1013    4.1491   53.9374 C.3     1  ZINC000842947763   -0.1600
      2 C2         -1.4419    3.4244   54.0727 C.3     1  ZINC000842947763   -0.1000
      3 H3         -1.2686    2.3511   54.1497 H       1  ZINC000842947763    0.1000
      4 C4         -2.3049    3.7146   52.8429 C.3     1  ZINC000842947763    0.0800
      5 O5         -3.6860    3.3694   53.1285 O.3     1  ZINC000842947763   -0.3500
      6 C6         -4.2160    2.3426   52.4350 C.2     1  ZINC000842947763    0.5200
      7 O7         -3.6153    1.8749   51.4879 O.2     1  ZINC000842947763   -0.5100
      8 C8         -5.5242    1.7872   52.8251 C.ar    1  ZINC000842947763   -0.1600
      9 C9         -5.9234    0.5308   52.3586 C.ar    1  ZINC000842947763   -0.0200
     10 C10        -7.1439    0.0187   52.7262 C.ar    1  ZINC000842947763   -0.1700
     11 C11        -7.9934    0.7483   53.5669 C.ar    1  ZINC000842947763    0.2000
     12 C12        -7.5876    1.9961   54.0254 C.ar    1  ZINC000842947763   -0.1500
     13 C13        -6.3728    2.5102   53.6689 C.ar    1  ZINC000842947763   -0.0100
     14 C14        -8.6802    2.5609   54.9062 C.3     1  ZINC000842947763   -0.0800
     15 C15        -9.7739    1.4804   54.9010 C.3     1  ZINC000842947763    0.1100
     16 N16        -9.2522    0.4094   54.0484 N.am    1  ZINC000842947763   -0.9400
     17 S17       -10.0482   -1.0020   53.7070 S.o2    1  ZINC000842947763    2.6100
     18 C18       -11.5818   -0.4721   52.8960 C.3     1  ZINC000842947763   -0.6700
     19 O19        -9.1995   -1.6682   52.7822 O.2     1  ZINC000842947763   -0.9300
     20 O20       -10.3269   -1.5643   54.9819 O.2     1  ZINC000842947763   -0.9400
     21 C21        -2.1631    3.9160   55.3292 C.3     1  ZINC000842947763   -0.1600
     22 C22        -1.3280    3.5717   56.5641 C.3     1  ZINC000842947763    0.4600
     23 F23        -2.1702    3.4309   57.6722 F       1  ZINC000842947763   -0.1800
     24 F24        -0.6425    2.3721   56.3439 F       1  ZINC000842947763   -0.1800
     25 F25        -0.4075    4.5972   56.8053 F       1  ZINC000842947763   -0.1800
     26 H26         0.5651    3.8331   54.7400 H       1  ZINC000842947763    0.0700
     27 H27         0.3480    3.9054   52.9747 H       1  ZINC000842947763    0.0700
     28 H28        -0.2620    5.2254   54.0013 H       1  ZINC000842947763    0.0600
     29 H29        -2.2390    4.7738   52.5945 H       1  ZINC000842947763    0.0800
     30 H30        -1.9487    3.1210   52.0009 H       1  ZINC000842947763    0.0800
     31 H31        -5.2728   -0.0364   51.7094 H       1  ZINC000842947763    0.1500
     32 H32        -7.4501   -0.9519   52.3647 H       1  ZINC000842947763    0.1500
     33 H33        -6.0708    3.4810   54.0332 H       1  ZINC000842947763    0.1400
     34 H34        -8.3084    2.7213   55.9182 H       1  ZINC000842947763    0.1000
     35 H35        -9.0630    3.4921   54.4883 H       1  ZINC000842947763    0.1000
     36 H36        -9.9443    1.1099   55.9119 H       1  ZINC000842947763    0.1000
     37 H37       -10.6981    1.8799   54.4832 H       1  ZINC000842947763    0.0900
     38 H38       -11.3402    0.0877   51.9924 H       1  ZINC000842947763    0.1300
     39 H39       -12.1751   -1.3478   52.6331 H       1  ZINC000842947763    0.1400
     40 H40       -12.1514    0.1624   53.5750 H       1  ZINC000842947763    0.1300
     41 H41        -2.2981    4.9961   55.2716 H       1  ZINC000842947763    0.1200
     42 H42        -3.1368    3.4315   55.4024 H       1  ZINC000842947763    0.1100
@<TRIPOS>BOND
     1     1     2    1
     2     1    26    1
     3     1    27    1
     4     1    28    1
     5     2     3    1
     6     2     4    1
     7     2    21    1
     8     4     5    1
     9     4    29    1
    10     4    30    1
    11     5     6    1
    12     6     7    2
    13     6     8    1
    14     8    13   ar
    15     8     9   ar
    16     9    10   ar
    17     9    31    1
    18    10    11   ar
    19    10    32    1
    20    11    16    1
    21    11    12   ar
    22    12    13   ar
    23    12    14    1
    24    13    33    1
    25    14    15    1
    26    14    34    1
    27    14    35    1
    28    15    16    1
    29    15    36    1
    30    15    37    1
    31    16    17   am
    32    17    18    1
    33    17    19    2
    34    17    20    2
    35    18    38    1
    36    18    39    1
    37    18    40    1
    38    21    22    1
    39    21    41    1
    40    21    42    1
    41    22    23    1
    42    22    24    1
    43    22    25    1
@<TRIPOS>SUBSTRUCTURE
     1 ZINC000842947763        1 TEMP              0 ****  ****    0 ROOT


##########                                Name:    ZINC000899027326
##########                DOCK_Rotatable_Bonds:                   5
##########                         Heavy_Atoms:                  22
##########                    Molecular_Weight:             346.169
##########                DOCK_Rotatable_Bonds:                   5
##########                       Formal_Charge:           0.0300005
##########                     HBond_Acceptors:                   9
##########                        HBond_Donors:                   1
##########                         Heavy_Atoms:                  22
##########                          Grid_Score:          -26.395327
##########                     Grid_vdw_energy:          -26.133406
##########                      Grid_es_energy:           -0.261920
##########           Internal_energy_repulsive:           13.603847

@<TRIPOS>MOLECULE
ZINC000899027326
 35 36 1 0 0
SMALL
USER_CHARGES


@<TRIPOS>ATOM
      1 C1        -10.8681   -0.8631   56.1623 C.3     1  ZINC000899027326   -0.1500
      2 C2         -9.9961   -1.2508   57.3583 C.3     1  ZINC000899027326    0.1100
      3 H3         -8.9634   -1.4040   57.0448 H       1  ZINC000899027326    0.1400
      4 C4        -10.0735   -0.1920   58.4402 C.2     1  ZINC000899027326    0.5300
      5 O5         -9.7421    0.9708   58.3519 O.2     1  ZINC000899027326   -0.4500
      6 N6        -10.5882   -0.8119   59.5205 N.am    1  ZINC000899027326   -0.3700
      7 N7        -10.8266   -0.1831   60.7496 N.am    1  ZINC000899027326   -0.5000
      8 C8         -9.7938    0.2798   61.4813 C.2     1  ZINC000899027326    0.5200
      9 O9         -8.6581    0.1532   61.0752 O.2     1  ZINC000899027326   -0.4800
     10 C10       -10.0503    0.9546   62.8042 C.3     1  ZINC000899027326    0.0500
     11 O11        -9.4589    0.1859   63.8536 O.3     1  ZINC000899027326   -0.2700
     12 C12        -8.2390    0.5864   64.3001 C.ar    1  ZINC000899027326    0.1400
     13 C13        -7.4381    1.3908   63.5038 C.ar    1  ZINC000899027326   -0.1900
     14 C14        -6.1981    1.7970   63.9592 C.ar    1  ZINC000899027326   -0.0600
     15 C15        -5.7553    1.4019   65.2087 C.ar    1  ZINC000899027326   -0.0600
     16 Cl16       -4.1974    1.9144   65.7781 Cl      1  ZINC000899027326   -0.0500
     17 C17        -6.5525    0.5991   66.0057 C.ar    1  ZINC000899027326   -0.0600
     18 C18        -7.7956    0.1953   65.5564 C.ar    1  ZINC000899027326   -0.0500
     19 Cl19       -8.7958   -0.8117   66.5561 Cl      1  ZINC000899027326   -0.0300
     20 C20       -10.8440   -2.1018   59.2740 C.2     1  ZINC000899027326    0.7000
     21 O21       -11.3115   -2.8666   60.0948 O.2     1  ZINC000899027326   -0.5200
     22 N22       -10.5236   -2.4599   58.0140 N.am    1  ZINC000899027326   -0.6200
     23 C23       -10.6750   -3.7889   57.4163 C.3     1  ZINC000899027326    0.1200
     24 H24       -11.8929   -0.7022   56.4968 H       1  ZINC000899027326    0.0700
     25 H25       -10.4839    0.0533   55.7145 H       1  ZINC000899027326    0.0900
     26 H26       -10.8486   -1.6644   55.4236 H       1  ZINC000899027326    0.0900
     27 H27       -11.7351   -0.0807   61.0738 H       1  ZINC000899027326    0.4300
     28 H28        -9.6124    1.9527   62.7938 H       1  ZINC000899027326    0.1100
     29 H29       -11.1248    1.0310   62.9708 H       1  ZINC000899027326    0.1100
     30 H30        -7.7829    1.6994   62.5280 H       1  ZINC000899027326    0.1500
     31 H31        -5.5742    2.4232   63.3388 H       1  ZINC000899027326    0.1500
     32 H32        -6.2050    0.2917   66.9810 H       1  ZINC000899027326    0.1500
     33 H33       -11.0958   -4.4729   58.1533 H       1  ZINC000899027326    0.0900
     34 H34       -11.3416   -3.7267   56.5562 H       1  ZINC000899027326    0.0700
     35 H35        -9.7003   -4.1559   57.0948 H       1  ZINC000899027326    0.0700
@<TRIPOS>BOND
     1     1     2    1
     2     1    24    1
     3     1    25    1
     4     1    26    1
     5     2     3    1
     6     2    22    1
     7     2     4    1
     8     4     5    2
     9     4     6   am
    10     6     7    1
    11     6    20   am
    12     7     8   am
    13     7    27    1
    14     8     9    2
    15     8    10    1
    16    10    11    1
    17    10    28    1
    18    10    29    1
    19    11    12    1
    20    12    18   ar
    21    12    13   ar
    22    13    14   ar
    23    13    30    1
    24    14    15   ar
    25    14    31    1
    26    15    16    1
    27    15    17   ar
    28    17    18   ar
    29    17    32    1
    30    18    19    1
    31    20    21    2
    32    20    22   am
    33    22    23    1
    34    23    33    1
    35    23    34    1
    36    23    35    1
@<TRIPOS>SUBSTRUCTURE
     1 ZINC000899027326        1 TEMP              0 ****  ****    0 ROOT


##########                                Name:    ZINC000004313955
##########                DOCK_Rotatable_Bonds:                   6
##########                         Heavy_Atoms:                  26
##########                    Molecular_Weight:             414.358
##########                DOCK_Rotatable_Bonds:                   6
##########                       Formal_Charge:           0.0299997
##########                     HBond_Acceptors:                   9
##########                        HBond_Donors:                   2
##########                         Heavy_Atoms:                  26
##########                          Grid_Score:          -26.366285
##########                     Grid_vdw_energy:          -26.978632
##########                      Grid_es_energy:            0.612347
##########           Internal_energy_repulsive:           18.080656

@<TRIPOS>MOLECULE
ZINC000004313955
 47 49 1 0 0
SMALL
USER_CHARGES


@<TRIPOS>ATOM
      1 C1        -14.2252   -2.2482   58.9679 C.3     1  ZINC000004313955   -0.1500
      2 C2        -14.8980   -1.4554   57.8455 C.3     1  ZINC000004313955   -0.1100
      3 H3        -14.6480   -0.3992   57.9457 H       1  ZINC000004313955    0.0800
      4 C4        -16.4156   -1.6318   57.9342 C.3     1  ZINC000004313955   -0.1100
      5 C5        -17.0913   -0.8129   56.8320 C.3     1  ZINC000004313955   -0.1100
      6 H6        -18.1732   -0.9204   56.9104 H       1  ZINC000004313955    0.0900
      7 C7        -16.7121    0.6614   56.9859 C.3     1  ZINC000004313955   -0.1500
      8 C8        -16.6247   -1.3216   55.4645 C.3     1  ZINC000004313955    0.1200
      9 N9        -15.1562   -1.2912   55.4246 N.am    1  ZINC000004313955   -0.6000
     10 C10       -14.5094   -0.6512   54.4304 C.2     1  ZINC000004313955    0.5400
     11 O11       -15.1399   -0.0944   53.5567 O.2     1  ZINC000004313955   -0.5300
     12 C12       -13.0028   -0.6275   54.4044 C.3     1  ZINC000004313955   -0.1400
     13 S13       -12.4375    0.8658   53.5519 S.3     1  ZINC000004313955    0.0800
     14 C14       -10.6935    0.6483   53.6781 C.2     1  ZINC000004313955    0.1100
     15 N15       -10.0727   -0.3265   54.3036 N.2     1  ZINC000004313955   -0.2800
     16 N16        -8.8004   -0.1795   54.1974 N.2     1  ZINC000004313955   -0.2400
     17 C17        -8.5307    0.8980   53.4976 C.2     1  ZINC000004313955    0.2500
     18 C18        -7.1867    1.4095   53.1551 C.ar    1  ZINC000004313955   -0.0100
     19 C19        -6.7899    2.6775   53.5820 C.ar    1  ZINC000004313955   -0.0700
     20 C20        -5.5345    3.1495   53.2592 C.ar    1  ZINC000004313955   -0.1100
     21 C21        -4.6683    2.3686   52.5128 C.ar    1  ZINC000004313955   -0.0100
     22 Cl22       -3.0905    2.9707   52.1105 Cl      1  ZINC000004313955   -0.0500
     23 C23        -5.0551    1.1093   52.0861 C.ar    1  ZINC000004313955   -0.1100
     24 C24        -6.3065    0.6233   52.4075 C.ar    1  ZINC000004313955    0.0100
     25 Cl25       -6.7906   -0.9555   51.8720 Cl      1  ZINC000004313955   -0.0100
     26 N26        -9.7349    1.4584   53.1390 N.pl3   1  ZINC000004313955   -0.3000
     27 N27        -9.9309    2.5929   52.4037 N.3     1  ZINC000004313955   -0.5800
     28 C28       -14.4058   -1.9709   56.4895 C.3     1  ZINC000004313955    0.1100
     29 H29       -13.1443   -2.1233   58.9036 H       1  ZINC000004313955    0.0600
     30 H30       -14.5766   -1.8819   59.9325 H       1  ZINC000004313955    0.0600
     31 H31       -14.4755   -3.3043   58.8672 H       1  ZINC000004313955    0.0600
     32 H32       -16.6667   -2.6852   57.8098 H       1  ZINC000004313955    0.0700
     33 H33       -16.7647   -1.2881   58.9080 H       1  ZINC000004313955    0.0700
     34 H34       -15.6303    0.7685   56.9064 H       1  ZINC000004313955    0.0600
     35 H35       -17.1936    1.2442   56.2007 H       1  ZINC000004313955    0.0600
     36 H36       -17.0423    1.0217   57.9602 H       1  ZINC000004313955    0.0600
     37 H37       -16.9732   -2.3437   55.3165 H       1  ZINC000004313955    0.0700
     38 H38       -17.0249   -0.6796   54.6798 H       1  ZINC000004313955    0.1000
     39 H39       -12.6218   -0.6291   55.4257 H       1  ZINC000004313955    0.1300
     40 H40       -12.6346   -1.5080   53.8778 H       1  ZINC000004313955    0.1300
     41 H41        -7.4644    3.2882   54.1638 H       1  ZINC000004313955    0.1600
     42 H42        -5.2266    4.1308   53.5893 H       1  ZINC000004313955    0.1500
     43 H43        -4.3753    0.5049   51.5042 H       1  ZINC000004313955    0.1500
     44 H44       -10.9150    2.7852   52.2910 H       1  ZINC000004313955    0.3700
     45 H45        -9.4540    3.3794   52.8184 H       1  ZINC000004313955    0.3800
     46 H46       -13.3425   -1.7574   56.3804 H       1  ZINC000004313955    0.0900
     47 H47       -14.5731   -3.0460   56.4254 H       1  ZINC000004313955    0.0800
@<TRIPOS>BOND
     1     1     2    1
     2     1    29    1
     3     1    30    1
     4     1    31    1
     5     2     3    1
     6     2    28    1
     7     2     4    1
     8     4     5    1
     9     4    32    1
    10     4    33    1
    11     5     6    1
    12     5     7    1
    13     5     8    1
    14     7    34    1
    15     7    35    1
    16     7    36    1
    17     8     9    1
    18     8    37    1
    19     8    38    1
    20     9    10   am
    21     9    28    1
    22    10    11    2
    23    10    12    1
    24    12    13    1
    25    12    39    1
    26    12    40    1
    27    13    14    1
    28    14    26    1
    29    14    15    2
    30    15    16    1
    31    16    17    2
    32    17    18    1
    33    17    26    1
    34    18    24   ar
    35    18    19   ar
    36    19    20   ar
    37    19    41    1
    38    20    21   ar
    39    20    42    1
    40    21    22    1
    41    21    23   ar
    42    23    24   ar
    43    23    43    1
    44    24    25    1
    45    26    27    1
    46    27    44    1
    47    27    45    1
    48    28    46    1
    49    28    47    1
@<TRIPOS>SUBSTRUCTURE
     1 ZINC000004313955        1 TEMP              0 ****  ****    0 ROOT


##########                                Name:    ZINC000279331220
##########                DOCK_Rotatable_Bonds:                   9
##########                         Heavy_Atoms:                  24
##########                    Molecular_Weight:             328.411
##########                DOCK_Rotatable_Bonds:                   9
##########                       Formal_Charge:          -0.0100001
##########                     HBond_Acceptors:                   5
##########                        HBond_Donors:                   0
##########                         Heavy_Atoms:                  24
##########                          Grid_Score:          -26.338278
##########                     Grid_vdw_energy:          -25.839970
##########                      Grid_es_energy:           -0.498308
##########           Internal_energy_repulsive:           22.595638

@<TRIPOS>MOLECULE
ZINC000279331220
 48 49 1 0 0
SMALL
USER_CHARGES


@<TRIPOS>ATOM
      1 C1         -9.8746   -1.6833   56.6813 C.3     1  ZINC000279331220   -0.1500
      2 C2         -9.5423   -1.1126   58.0614 C.3     1  ZINC000279331220    0.0500
      3 O3         -8.5116   -0.1309   57.9353 O.3     1  ZINC000279331220   -0.3000
      4 C4         -8.1616    0.5452   59.0621 C.ar    1  ZINC000279331220    0.1000
      5 C5         -8.7943    0.2676   60.2629 C.ar    1  ZINC000279331220   -0.1700
      6 C6         -8.4370    0.9557   61.4079 C.ar    1  ZINC000279331220   -0.1200
      7 C7         -7.4493    1.9212   61.3577 C.ar    1  ZINC000279331220   -0.1200
      8 C8         -6.8141    2.2035   60.1623 C.ar    1  ZINC000279331220   -0.1700
      9 C9         -7.1629    1.5135   59.0128 C.ar    1  ZINC000279331220    0.1000
     10 O10        -6.5392    1.7899   57.8364 O.3     1  ZINC000279331220   -0.3000
     11 C11        -5.7476    2.9785   57.7854 C.3     1  ZINC000279331220    0.0600
     12 C12        -5.2092    3.1723   56.3664 C.3     1  ZINC000279331220   -0.1100
     13 C13        -6.2733    2.7437   55.3542 C.3     1  ZINC000279331220   -0.1300
     14 C14        -5.8638    3.1915   53.9748 C.2     1  ZINC000279331220    0.5200
     15 O15        -5.0012    4.0334   53.8417 O.2     1  ZINC000279331220   -0.5200
     16 N16        -6.4563    2.6565   52.8889 N.am    1  ZINC000279331220   -0.5700
     17 C17        -6.0568    3.0907   51.5479 C.3     1  ZINC000279331220    0.0800
     18 C18        -7.4491    1.6899   53.0417 C.ar    1  ZINC000279331220    0.3400
     19 N19        -8.6447    2.0426   53.4863 N.ar    1  ZINC000279331220   -0.4800
     20 C20        -9.6121    1.1597   53.6453 C.ar    1  ZINC000279331220    0.1100
     21 C21        -9.4090   -0.1739   53.3507 C.ar    1  ZINC000279331220   -0.1600
     22 C22        -8.1686   -0.5851   52.8816 C.ar    1  ZINC000279331220   -0.0700
     23 C23        -7.1758    0.3651   52.7200 C.ar    1  ZINC000279331220   -0.1200
     24 C24        -5.8135   -0.0324   52.2133 C.3     1  ZINC000279331220   -0.1100
     25 H25       -10.6608   -2.4321   56.7774 H       1  ZINC000279331220    0.0800
     26 H26       -10.2159   -0.8799   56.0285 H       1  ZINC000279331220    0.0700
     27 H27        -8.9838   -2.1445   56.2547 H       1  ZINC000279331220    0.0700
     28 H28       -10.4330   -0.6515   58.4880 H       1  ZINC000279331220    0.0600
     29 H29        -9.2009   -1.9160   58.7143 H       1  ZINC000279331220    0.0600
     30 H30        -9.5669   -0.4859   60.3045 H       1  ZINC000279331220    0.1300
     31 H31        -8.9310    0.7383   62.3434 H       1  ZINC000279331220    0.1300
     32 H32        -7.1733    2.4566   62.2542 H       1  ZINC000279331220    0.1300
     33 H33        -6.0431    2.9589   60.1257 H       1  ZINC000279331220    0.1300
     34 H34        -6.3613    3.8360   58.0614 H       1  ZINC000279331220    0.0600
     35 H35        -4.9135    2.8897   58.4814 H       1  ZINC000279331220    0.0600
     36 H36        -4.9626    4.2227   56.2116 H       1  ZINC000279331220    0.0800
     37 H37        -4.3140    2.5652   56.2315 H       1  ZINC000279331220    0.0800
     38 H38        -6.3730    1.6584   55.3692 H       1  ZINC000279331220    0.1000
     39 H39        -7.2282    3.1998   55.6157 H       1  ZINC000279331220    0.1000
     40 H40        -5.1837    2.5225   51.2271 H       1  ZINC000279331220    0.0700
     41 H41        -6.8774    2.9199   50.8512 H       1  ZINC000279331220    0.0800
     42 H42        -5.8120    4.1526   51.5678 H       1  ZINC000279331220    0.0800
     43 H43       -10.5751    1.4841   54.0108 H       1  ZINC000279331220    0.1600
     44 H44       -10.2065   -0.8898   53.4842 H       1  ZINC000279331220    0.1400
     45 H45        -7.9842   -1.6223   52.6440 H       1  ZINC000279331220    0.1400
     46 H46        -5.7684    0.1194   51.1348 H       1  ZINC000279331220    0.0800
     47 H47        -5.0527    0.5791   52.6984 H       1  ZINC000279331220    0.0700
     48 H48        -5.6339   -1.0834   52.4400 H       1  ZINC000279331220    0.0700
@<TRIPOS>BOND
     1     1     2    1
     2     1    25    1
     3     1    26    1
     4     1    27    1
     5     2     3    1
     6     2    28    1
     7     2    29    1
     8     3     4    1
     9     4     9   ar
    10     4     5   ar
    11     5     6   ar
    12     5    30    1
    13     6     7   ar
    14     6    31    1
    15     7     8   ar
    16     7    32    1
    17     8     9   ar
    18     8    33    1
    19     9    10    1
    20    10    11    1
    21    11    12    1
    22    11    34    1
    23    11    35    1
    24    12    13    1
    25    12    36    1
    26    12    37    1
    27    13    14    1
    28    13    38    1
    29    13    39    1
    30    14    15    2
    31    14    16   am
    32    16    17    1
    33    16    18    1
    34    17    40    1
    35    17    41    1
    36    17    42    1
    37    18    23   ar
    38    18    19   ar
    39    19    20   ar
    40    20    21   ar
    41    20    43    1
    42    21    22   ar
    43    21    44    1
    44    22    23   ar
    45    22    45    1
    46    23    24    1
    47    24    46    1
    48    24    47    1
    49    24    48    1
@<TRIPOS>SUBSTRUCTURE
     1 ZINC000279331220        1 TEMP              0 ****  ****    0 ROOT


##########                                Name:    ZINC000281092425
##########                DOCK_Rotatable_Bonds:                   8
##########                         Heavy_Atoms:                  23
##########                    Molecular_Weight:             332.304
##########                DOCK_Rotatable_Bonds:                   8
##########                       Formal_Charge:         2.98023e-08
##########                     HBond_Acceptors:                   9
##########                        HBond_Donors:                   2
##########                         Heavy_Atoms:                  23
##########                          Grid_Score:          -26.328613
##########                     Grid_vdw_energy:          -23.271454
##########                      Grid_es_energy:           -3.057158
##########           Internal_energy_repulsive:           14.727893

@<TRIPOS>MOLECULE
ZINC000281092425
 41 42 1 0 0
SMALL
USER_CHARGES


@<TRIPOS>ATOM
      1 O1        -14.8639   -3.8661   57.8939 O.2     1  ZINC000281092425   -0.1800
      2 N2        -14.7674   -2.9959   58.7406 N.pl3   1  ZINC000281092425    0.0400
      3 O3        -15.7491   -2.6503   59.3734 O.2     1  ZINC000281092425   -0.1500
      4 C4        -13.4560   -2.3625   59.0047 C.ar    1  ZINC000281092425   -0.1200
      5 C5        -12.3430   -2.7552   58.2863 C.ar    1  ZINC000281092425    0.0200
      6 C6        -11.1171   -2.1665   58.5298 C.ar    1  ZINC000281092425   -0.2200
      7 C7        -11.0010   -1.1771   59.4982 C.ar    1  ZINC000281092425    0.3000
      8 N8         -9.7620   -0.5814   59.7445 N.pl3   1  ZINC000281092425   -0.7200
      9 C9         -9.0153    0.0369   58.6460 C.3     1  ZINC000281092425    0.1200
     10 C10        -8.1267    1.1533   59.1983 C.3     1  ZINC000281092425   -0.0900
     11 H11        -8.7519    1.9646   59.5710 H       1  ZINC000281092425    0.0900
     12 C12        -7.2689    0.6045   60.3402 C.3     1  ZINC000281092425    0.0800
     13 O13        -6.5301   -0.5284   59.8790 O.3     1  ZINC000281092425   -0.5700
     14 C14        -7.2182    1.6796   58.0854 C.3     1  ZINC000281092425   -0.1100
     15 H15        -6.5846    0.8830   57.6949 H       1  ZINC000281092425    0.0900
     16 C16        -8.0549    2.3276   56.9488 C.3     1  ZINC000281092425   -0.1600
     17 C17        -7.0417    3.3570   56.3880 C.3     1  ZINC000281092425    0.0500
     18 O18        -6.3245    3.8404   57.5348 O.3     1  ZINC000281092425   -0.3900
     19 C19        -6.3648    2.8643   58.5870 C.3     1  ZINC000281092425    0.0700
     20 C20       -12.1185   -0.7811   60.2208 C.ar    1  ZINC000281092425   -0.2800
     21 C21       -13.3471   -1.3708   59.9699 C.ar    1  ZINC000281092425    0.2300
     22 O22       -14.4430   -0.9851   60.6750 O.3     1  ZINC000281092425   -0.2900
     23 C23       -14.8482    0.3794   60.5492 C.3     1  ZINC000281092425    0.4100
     24 F24       -15.2517    0.6265   59.2326 F       1  ZINC000281092425   -0.1900
     25 F25       -15.9148    0.6312   61.4189 F       1  ZINC000281092425   -0.1900
     26 H26       -12.4315   -3.5241   57.5330 H       1  ZINC000281092425    0.1600
     27 H27       -10.2486   -2.4756   57.9674 H       1  ZINC000281092425    0.1500
     28 H28        -9.3958   -0.5770   60.6426 H       1  ZINC000281092425    0.4100
     29 H29        -8.3939   -0.7154   58.1604 H       1  ZINC000281092425    0.0800
     30 H30        -9.7143    0.4540   57.9211 H       1  ZINC000281092425    0.0800
     31 H31        -6.5773    1.3762   60.6784 H       1  ZINC000281092425    0.0500
     32 H32        -7.9130    0.3061   61.1674 H       1  ZINC000281092425    0.0500
     33 H33        -5.9606   -0.9268   60.5514 H       1  ZINC000281092425    0.3800
     34 H34        -8.3266    1.5914   56.1922 H       1  ZINC000281092425    0.0800
     35 H35        -8.9399    2.8241   57.3467 H       1  ZINC000281092425    0.0800
     36 H36        -6.3579    2.8733   55.6904 H       1  ZINC000281092425    0.0600
     37 H37        -7.5672    4.1762   55.8973 H       1  ZINC000281092425    0.0900
     38 H38        -6.8240    3.2972   59.4757 H       1  ZINC000281092425    0.0800
     39 H39        -5.3541    2.5278   58.8181 H       1  ZINC000281092425    0.0700
     40 H40       -12.0311   -0.0122   60.9741 H       1  ZINC000281092425    0.1500
     41 H41       -14.0120    1.0315   60.8014 H       1  ZINC000281092425    0.1900
@<TRIPOS>BOND
     1     1     2    2
     2     2     3    2
     3     2     4    1
     4     4    21   ar
     5     4     5   ar
     6     5     6   ar
     7     5    26    1
     8     6     7   ar
     9     6    27    1
    10     7     8    1
    11     7    20   ar
    12     8     9    1
    13     8    28    1
    14     9    10    1
    15     9    29    1
    16     9    30    1
    17    10    11    1
    18    10    12    1
    19    10    14    1
    20    12    13    1
    21    12    31    1
    22    12    32    1
    23    13    33    1
    24    14    15    1
    25    14    19    1
    26    14    16    1
    27    16    17    1
    28    16    34    1
    29    16    35    1
    30    17    18    1
    31    17    36    1
    32    17    37    1
    33    18    19    1
    34    19    38    1
    35    19    39    1
    36    20    21   ar
    37    20    40    1
    38    21    22    1
    39    22    23    1
    40    23    24    1
    41    23    25    1
    42    23    41    1
@<TRIPOS>SUBSTRUCTURE
     1 ZINC000281092425        1 TEMP              0 ****  ****    0 ROOT


##########                                Name:    ZINC000047262406
##########                DOCK_Rotatable_Bonds:                   6
##########                         Heavy_Atoms:                  28
##########                    Molecular_Weight:             417.919
##########                DOCK_Rotatable_Bonds:                   6
##########                       Formal_Charge:          -0.0100002
##########                     HBond_Acceptors:                   9
##########                        HBond_Donors:                   1
##########                         Heavy_Atoms:                  28
##########                          Grid_Score:          -26.253407
##########                     Grid_vdw_energy:          -24.593857
##########                      Grid_es_energy:           -1.659550
##########           Internal_energy_repulsive:           12.824117

@<TRIPOS>MOLECULE
ZINC000047262406
 48 51 1 0 0
SMALL
USER_CHARGES


@<TRIPOS>ATOM
      1 C1        -16.2613   -2.0490   55.5262 C.3     1  ZINC000047262406   -0.1500
      2 C2        -15.0988   -1.8390   56.4986 C.3     1  ZINC000047262406    0.1800
      3 H3        -14.8563   -2.7842   56.9845 H       1  ZINC000047262406    0.0800
      4 C4        -15.4930   -0.8249   57.5413 C.2     1  ZINC000047262406    0.1700
      5 N5        -16.4163    0.0863   57.4173 N.2     1  ZINC000047262406   -0.2500
      6 N6        -16.4871    0.7789   58.4992 N.2     1  ZINC000047262406   -0.2700
      7 C7        -15.6012    0.3281   59.3606 C.2     1  ZINC000047262406    0.2400
      8 C8        -15.3605    0.8447   60.7162 C.2     1  ZINC000047262406   -0.1500
      9 C9        -16.0277    1.8815   61.2938 C.2     1  ZINC000047262406   -0.0600
     10 C10       -15.6198    2.1786   62.5755 C.2     1  ZINC000047262406   -0.1400
     11 C11       -14.6370    1.4080   63.0529 C.2     1  ZINC000047262406   -0.1900
     12 S12       -14.1706    0.2153   61.8483 S.3     1  ZINC000047262406    0.1700
     13 O13       -14.9591   -0.7010   58.7701 O.3     1  ZINC000047262406   -0.2200
     14 N14       -13.9253   -1.3523   55.7612 N.3     1  ZINC000047262406   -0.5200
     15 C15       -12.6923   -1.5775   56.5262 C.3     1  ZINC000047262406    0.0500
     16 C16       -11.4825   -1.1938   55.6711 C.3     1  ZINC000047262406   -0.1000
     17 C17       -11.5942    0.2796   55.2695 C.3     1  ZINC000047262406   -0.1100
     18 C18       -10.4365    0.6476   54.3777 C.2     1  ZINC000047262406    0.5100
     19 O19       -10.5907    1.4549   53.4859 O.2     1  ZINC000047262406   -0.4600
     20 N20        -9.2296    0.0796   54.5714 N.am    1  ZINC000047262406   -0.6600
     21 C21        -8.1583    0.4202   53.7461 C.ar    1  ZINC000047262406    0.3600
     22 C22        -7.7007   -0.4907   52.8013 C.ar    1  ZINC000047262406   -0.2000
     23 C23        -6.6370   -0.1405   51.9881 C.ar    1  ZINC000047262406   -0.0400
     24 C24        -6.0653    1.1148   52.1493 C.ar    1  ZINC000047262406   -0.1200
     25 Cl25       -4.7292    1.6047   51.1549 Cl      1  ZINC000047262406   -0.0500
     26 C26        -6.5720    1.9703   53.1096 C.ar    1  ZINC000047262406    0.1500
     27 N27        -7.5904    1.6097   53.8664 N.ar    1  ZINC000047262406   -0.4600
     28 C28       -12.9096    0.4969   54.5164 C.3     1  ZINC000047262406   -0.1100
     29 C29       -14.0779    0.0641   55.4050 C.3     1  ZINC000047262406    0.0600
     30 H30       -15.9761   -2.7825   54.7720 H       1  ZINC000047262406    0.0800
     31 H31       -17.1320   -2.4102   56.0734 H       1  ZINC000047262406    0.0700
     32 H32       -16.5038   -1.1038   55.0404 H       1  ZINC000047262406    0.0800
     33 H33       -16.8118    2.4260   60.7887 H       1  ZINC000047262406    0.1600
     34 H34       -16.0618    2.9770   63.1531 H       1  ZINC000047262406    0.1600
     35 H35       -14.1975    1.5017   64.0350 H       1  ZINC000047262406    0.1800
     36 H36       -12.7079   -0.9660   57.4285 H       1  ZINC000047262406    0.0400
     37 H37       -12.6230   -2.6297   56.8020 H       1  ZINC000047262406    0.0900
     38 H38       -10.5683   -1.3463   56.2449 H       1  ZINC000047262406    0.0800
     39 H39       -11.4585   -1.8143   54.7753 H       1  ZINC000047262406    0.0900
     40 H40       -11.5779    0.9031   56.1634 H       1  ZINC000047262406    0.1000
     41 H41        -9.1064   -0.5661   55.2846 H       1  ZINC000047262406    0.4200
     42 H42        -8.1688   -1.4591   52.7033 H       1  ZINC000047262406    0.1500
     43 H43        -6.2599   -0.8279   51.2454 H       1  ZINC000047262406    0.1500
     44 H44        -6.1309    2.9475   53.2394 H       1  ZINC000047262406    0.1700
     45 H45       -13.0149    1.5522   54.2651 H       1  ZINC000047262406    0.0700
     46 H46       -12.9080   -0.0971   53.6025 H       1  ZINC000047262406    0.0800
     47 H47       -15.0151    0.2042   54.8664 H       1  ZINC000047262406    0.0700
     48 H48       -14.0871    0.6679   56.3125 H       1  ZINC000047262406    0.0400
@<TRIPOS>BOND
     1     1     2    1
     2     1    30    1
     3     1    31    1
     4     1    32    1
     5     2     3    1
     6     2     4    1
     7     2    14    1
     8     4    13    1
     9     4     5    2
    10     5     6    1
    11     6     7    2
    12     7     8    1
    13     7    13    1
    14     8    12    1
    15     8     9    2
    16     9    10    1
    17     9    33    1
    18    10    11    2
    19    10    34    1
    20    11    12    1
    21    11    35    1
    22    14    29    1
    23    14    15    1
    24    15    16    1
    25    15    36    1
    26    15    37    1
    27    16    17    1
    28    16    38    1
    29    16    39    1
    30    17    18    1
    31    17    28    1
    32    17    40    1
    33    18    19    2
    34    18    20   am
    35    20    21    1
    36    20    41    1
    37    21    27   ar
    38    21    22   ar
    39    22    23   ar
    40    22    42    1
    41    23    24   ar
    42    23    43    1
    43    24    25    1
    44    24    26   ar
    45    26    27   ar
    46    26    44    1
    47    28    29    1
    48    28    45    1
    49    28    46    1
    50    29    47    1
    51    29    48    1
@<TRIPOS>SUBSTRUCTURE
     1 ZINC000047262406        1 TEMP              0 ****  ****    0 ROOT


##########                                Name:    ZINC001015955459
##########                DOCK_Rotatable_Bonds:                   6
##########                         Heavy_Atoms:                  24
##########                    Molecular_Weight:             347.844
##########                DOCK_Rotatable_Bonds:                   6
##########                       Formal_Charge:          -0.0200002
##########                     HBond_Acceptors:                   6
##########                        HBond_Donors:                   1
##########                         Heavy_Atoms:                  24
##########                          Grid_Score:          -26.250877
##########                     Grid_vdw_energy:          -26.296789
##########                      Grid_es_energy:            0.045911
##########           Internal_energy_repulsive:           10.898713

@<TRIPOS>MOLECULE
ZINC001015955459
 46 48 1 0 0
SMALL
USER_CHARGES


@<TRIPOS>ATOM
      1 C1         -7.3240    2.9035   63.2754 C.3     1  ZINC001015955459   -0.1500
      2 C2         -7.5069    1.5864   62.5187 C.3     1  ZINC001015955459   -0.0300
      3 C3         -6.6897    0.4880   63.2019 C.3     1  ZINC001015955459   -0.1500
      4 C4         -8.9644    1.2035   62.5217 C.2     1  ZINC001015955459    0.0600
      5 C5         -9.6188    0.4987   61.5589 C.2     1  ZINC001015955459   -0.0800
      6 C6         -9.0350   -0.0346   60.3147 C.2     1  ZINC001015955459    0.6100
      7 O7         -7.8741    0.2000   60.0383 O.2     1  ZINC001015955459   -0.5300
      8 N8         -9.7878   -0.7821   59.4834 N.am    1  ZINC001015955459   -0.7100
      9 C9         -9.2071   -1.3135   58.2478 C.3     1  ZINC001015955459    0.1400
     10 H10        -8.1572   -1.5632   58.4005 H       1  ZINC001015955459    0.1000
     11 C11        -9.9909   -2.5568   57.7789 C.3     1  ZINC001015955459   -0.1300
     12 C12       -10.5451   -2.1806   56.3881 C.3     1  ZINC001015955459    0.0200
     13 N13        -9.6330   -1.1158   55.8971 N.3     1  ZINC001015955459   -0.4900
     14 C14       -10.2761   -0.3144   54.8473 C.3     1  ZINC001015955459    0.0800
     15 C15        -9.2652    0.6255   54.2426 C.ar    1  ZINC001015955459   -0.1100
     16 C16        -9.3644    1.9855   54.4685 C.ar    1  ZINC001015955459   -0.1100
     17 C17        -8.4344    2.8480   53.9180 C.ar    1  ZINC001015955459   -0.1000
     18 C18        -7.4114    2.3516   53.1327 C.ar    1  ZINC001015955459   -0.1100
     19 C19        -7.3146    0.9908   52.9018 C.ar    1  ZINC001015955459   -0.0300
     20 Cl20       -6.0300    0.3666   51.9149 Cl      1  ZINC001015955459   -0.0700
     21 C21        -8.2422    0.1279   53.4572 C.ar    1  ZINC001015955459   -0.1000
     22 C22        -9.3536   -0.2888   57.1024 C.3     1  ZINC001015955459    0.0100
     23 N23       -10.9145    0.3838   61.9579 N.2     1  ZINC001015955459   -0.4600
     24 C24       -11.0458    0.9768   63.1067 C.2     1  ZINC001015955459    0.1800
     25 O25        -9.8645    1.4925   63.4751 O.3     1  ZINC001015955459   -0.1900
     26 H26        -7.6657    2.7824   64.3033 H       1  ZINC001015955459    0.0600
     27 H27        -6.2697    3.1804   63.2732 H       1  ZINC001015955459    0.0700
     28 H28        -7.9061    3.6860   62.7887 H       1  ZINC001015955459    0.0600
     29 H29        -7.1651    1.7074   61.4907 H       1  ZINC001015955459    0.1300
     30 H30        -6.8200   -0.4504   62.6627 H       1  ZINC001015955459    0.0600
     31 H31        -5.6354    0.7649   63.1996 H       1  ZINC001015955459    0.0700
     32 H32        -7.0313    0.3669   64.2297 H       1  ZINC001015955459    0.0600
     33 H33       -10.7140   -0.9683   59.7033 H       1  ZINC001015955459    0.4100
     34 H34        -9.3256   -3.4167   57.7016 H       1  ZINC001015955459    0.0800
     35 H35       -10.8075   -2.7716   58.4682 H       1  ZINC001015955459    0.0700
     36 H36       -10.5165   -3.0427   55.7216 H       1  ZINC001015955459    0.0900
     37 H37       -11.5626   -1.7996   56.4746 H       1  ZINC001015955459    0.0500
     38 H38       -10.6663   -0.9753   54.0733 H       1  ZINC001015955459    0.0900
     39 H39       -11.0944    0.2615   55.2798 H       1  ZINC001015955459    0.0900
     40 H40       -10.1664    2.3742   55.0785 H       1  ZINC001015955459    0.1300
     41 H41        -8.5100    3.9100   54.0983 H       1  ZINC001015955459    0.1300
     42 H42        -6.6877    3.0259   52.6990 H       1  ZINC001015955459    0.1300
     43 H43        -8.1675   -0.9344   53.2770 H       1  ZINC001015955459    0.1300
     44 H44       -10.1849    0.3876   57.3014 H       1  ZINC001015955459    0.0700
     45 H45        -8.4281    0.2726   56.9741 H       1  ZINC001015955459    0.0900
     46 H46       -11.9627    1.0474   63.6727 H       1  ZINC001015955459    0.2600
@<TRIPOS>BOND
     1     1     2    1
     2     1    26    1
     3     1    27    1
     4     1    28    1
     5     2     3    1
     6     2     4    1
     7     2    29    1
     8     3    30    1
     9     3    31    1
    10     3    32    1
    11     4    25    1
    12     4     5    2
    13     5     6    1
    14     5    23    1
    15     6     7    2
    16     6     8   am
    17     8     9    1
    18     8    33    1
    19     9    10    1
    20     9    22    1
    21     9    11    1
    22    11    12    1
    23    11    34    1
    24    11    35    1
    25    12    13    1
    26    12    36    1
    27    12    37    1
    28    13    14    1
    29    13    22    1
    30    14    15    1
    31    14    38    1
    32    14    39    1
    33    15    21   ar
    34    15    16   ar
    35    16    17   ar
    36    16    40    1
    37    17    18   ar
    38    17    41    1
    39    18    19   ar
    40    18    42    1
    41    19    20    1
    42    19    21   ar
    43    21    43    1
    44    22    44    1
    45    22    45    1
    46    23    24    2
    47    24    25    1
    48    24    46    1
@<TRIPOS>SUBSTRUCTURE
     1 ZINC001015955459        1 TEMP              0 ****  ****    0 ROOT


##########                                Name:    ZINC000863208514
##########                DOCK_Rotatable_Bonds:                   6
##########                         Heavy_Atoms:                  19
##########                    Molecular_Weight:             368.657
##########                DOCK_Rotatable_Bonds:                   6
##########                       Formal_Charge:           0.0100005
##########                     HBond_Acceptors:                   7
##########                        HBond_Donors:                   2
##########                         Heavy_Atoms:                  19
##########                          Grid_Score:          -26.213583
##########                     Grid_vdw_energy:          -25.476089
##########                      Grid_es_energy:           -0.737494
##########           Internal_energy_repulsive:           10.084477

@<TRIPOS>MOLECULE
ZINC000863208514
 31 31 1 0 0
SMALL
USER_CHARGES


@<TRIPOS>ATOM
      1 C1          1.2670    1.6361   58.8245 C.3     1  ZINC000863208514    0.0900
      2 N2          0.3923    2.7630   58.4911 N.am    1  ZINC000863208514   -0.6100
      3 C3          0.3519    3.9411   59.3608 C.3     1  ZINC000863208514    0.0700
      4 C4         -0.3752    2.7157   57.3841 C.2     1  ZINC000863208514    0.5100
      5 O5         -0.3428    1.7397   56.6650 O.2     1  ZINC000863208514   -0.5400
      6 C6         -1.2736    3.8757   57.0402 C.3     1  ZINC000863208514    0.1100
      7 N7         -1.5330    3.8817   55.5984 N.am    1  ZINC000863208514   -0.6600
      8 C8         -0.6749    4.4984   54.7618 C.2     1  ZINC000863208514    0.5600
      9 S9          0.7173    5.2765   55.3844 S.2     1  ZINC000863208514   -0.6000
     10 N10        -0.9127    4.5025   53.4352 N.am    1  ZINC000863208514   -0.6300
     11 C11        -2.0516    3.8660   52.9260 C.ar    1  ZINC000863208514    0.1200
     12 C12        -3.3157    4.3250   53.2676 C.ar    1  ZINC000863208514   -0.0300
     13 C13        -4.4386    3.6951   52.7632 C.ar    1  ZINC000863208514   -0.0200
     14 Cl14       -6.0203    4.2695   53.1898 Cl      1  ZINC000863208514   -0.0300
     15 C15        -4.3029    2.6074   51.9179 C.ar    1  ZINC000863208514   -0.0600
     16 Br16       -5.8412    1.7489   51.2302 Br      1  ZINC000863208514   -0.0100
     17 C17        -3.0438    2.1472   51.5747 C.ar    1  ZINC000863208514   -0.1100
     18 C18        -1.9176    2.7761   52.0723 C.ar    1  ZINC000863208514    0.1100
     19 F19        -0.6884    2.3267   51.7372 F       1  ZINC000863208514   -0.1200
     20 H20         1.8054    1.8545   59.7467 H       1  ZINC000863208514    0.0800
     21 H21         0.6659    0.7369   58.9591 H       1  ZINC000863208514    0.0700
     22 H22         1.9807    1.4783   58.0158 H       1  ZINC000863208514    0.0700
     23 H23         1.1010    4.6614   59.0319 H       1  ZINC000863208514    0.0700
     24 H24        -0.6371    4.3966   59.3099 H       1  ZINC000863208514    0.0800
     25 H25         0.5617    3.6420   60.3877 H       1  ZINC000863208514    0.0800
     26 H26        -2.2162    3.7773   57.5786 H       1  ZINC000863208514    0.1200
     27 H27        -0.7878    4.8087   57.3258 H       1  ZINC000863208514    0.1200
     28 H28        -2.3224    3.4419   55.2458 H       1  ZINC000863208514    0.4100
     29 H29        -0.2951    4.9464   52.8331 H       1  ZINC000863208514    0.4200
     30 H30        -3.4225    5.1734   53.9273 H       1  ZINC000863208514    0.1800
     31 H31        -2.9408    1.2983   50.9150 H       1  ZINC000863208514    0.1600
@<TRIPOS>BOND
     1     1     2    1
     2     1    20    1
     3     1    21    1
     4     1    22    1
     5     2     3    1
     6     2     4   am
     7     3    23    1
     8     3    24    1
     9     3    25    1
    10     4     5    2
    11     4     6    1
    12     6     7    1
    13     6    26    1
    14     6    27    1
    15     7     8   am
    16     7    28    1
    17     8     9    2
    18     8    10   am
    19    10    11    1
    20    10    29    1
    21    11    18   ar
    22    11    12   ar
    23    12    13   ar
    24    12    30    1
    25    13    14    1
    26    13    15   ar
    27    15    16    1
    28    15    17   ar
    29    17    18   ar
    30    17    31    1
    31    18    19    1
@<TRIPOS>SUBSTRUCTURE
     1 ZINC000863208514        1 TEMP              0 ****  ****    0 ROOT


##########                                Name:    ZINC000052999724
##########                DOCK_Rotatable_Bonds:                   6
##########                         Heavy_Atoms:                  25
##########                    Molecular_Weight:             398.571
##########                DOCK_Rotatable_Bonds:                   6
##########                       Formal_Charge:           0.0399994
##########                     HBond_Acceptors:                   8
##########                        HBond_Donors:                   1
##########                         Heavy_Atoms:                  25
##########                          Grid_Score:          -26.205078
##########                     Grid_vdw_energy:          -24.268999
##########                      Grid_es_energy:           -1.936079
##########           Internal_energy_repulsive:           12.183352

@<TRIPOS>MOLECULE
ZINC000052999724
 47 49 1 0 0
SMALL
USER_CHARGES


@<TRIPOS>ATOM
      1 C1        -11.3384   -2.3621   59.4679 C.3     1  ZINC000052999724   -0.1400
      2 C2        -10.2689   -1.5300   58.7574 C.3     1  ZINC000052999724   -0.0400
      3 C3         -9.7572   -2.2942   57.5347 C.3     1  ZINC000052999724   -0.1400
      4 C4        -10.8640   -0.2176   58.3167 C.2     1  ZINC000052999724   -0.0400
      5 C5        -10.2241    0.9818   58.4557 C.2     1  ZINC000052999724   -0.2600
      6 C6         -8.8932    1.1729   59.0395 C.2     1  ZINC000052999724    0.6000
      7 O7         -7.9041    1.1097   58.3332 O.2     1  ZINC000052999724   -0.5200
      8 N8         -8.7649    1.4186   60.3585 N.am    1  ZINC000052999724   -0.6000
      9 C9         -9.9490    1.4917   61.2251 C.3     1  ZINC000052999724    0.1100
     10 C10        -9.7609    0.5266   62.3998 C.3     1  ZINC000052999724   -0.1400
     11 C11        -8.4424    0.8438   63.1091 C.3     1  ZINC000052999724    0.1500
     12 N12        -8.2750   -0.0558   64.2532 N.am    1  ZINC000052999724   -1.1100
     13 S13        -8.3295    0.5464   65.7949 S.o2    1  ZINC000052999724    2.7200
     14 O14        -9.5482    1.2696   65.9003 O.2     1  ZINC000052999724   -0.9500
     15 O15        -7.9868   -0.5291   66.6581 O.2     1  ZINC000052999724   -0.9400
     16 C16        -7.0336    1.7317   65.9380 C.2     1  ZINC000052999724   -0.8000
     17 C17        -7.1851    2.9903   66.3529 C.2     1  ZINC000052999724    0.0100
     18 C18        -6.0208    3.7383   66.3841 C.2     1  ZINC000052999724   -0.1600
     19 C19        -4.9238    3.0871   65.9945 C.2     1  ZINC000052999724   -0.1700
     20 S20        -5.3413    1.4339   65.5629 S.3     1  ZINC000052999724    0.2100
     21 C21        -7.2779    0.6518   62.1349 C.3     1  ZINC000052999724   -0.1500
     22 C22        -7.4376    1.6122   60.9582 C.3     1  ZINC000052999724    0.1100
     23 S23       -11.2526    2.2591   57.8213 S.3     1  ZINC000052999724    0.2100
     24 C24       -12.4701    1.1375   57.4081 C.2     1  ZINC000052999724   -0.2400
     25 C25       -12.1022   -0.1083   57.7297 C.2     1  ZINC000052999724   -0.1300
     26 H26       -11.7029   -1.8177   60.3390 H       1  ZINC000052999724    0.0600
     27 H27       -12.1663   -2.5498   58.7842 H       1  ZINC000052999724    0.0600
     28 H28       -10.9079   -3.3114   59.7866 H       1  ZINC000052999724    0.0600
     29 H29        -9.4410   -1.3424   59.4411 H       1  ZINC000052999724    0.0800
     30 H30       -10.5851   -2.4819   56.8509 H       1  ZINC000052999724    0.0600
     31 H31        -8.9952   -1.7014   57.0285 H       1  ZINC000052999724    0.0600
     32 H32        -9.3268   -3.2435   57.8533 H       1  ZINC000052999724    0.0600
     33 H33       -10.0639    2.5080   61.6018 H       1  ZINC000052999724    0.0800
     34 H34       -10.8353    1.2079   60.6574 H       1  ZINC000052999724    0.0900
     35 H35       -10.5877    0.6410   63.1007 H       1  ZINC000052999724    0.0900
     36 H36        -9.7369   -0.4979   62.0286 H       1  ZINC000052999724    0.0800
     37 H37        -8.4570    1.8764   63.4581 H       1  ZINC000052999724    0.0900
     38 H38        -8.1323   -1.0040   64.1077 H       1  ZINC000052999724    0.4200
     39 H39        -8.1436    3.3952   66.6423 H       1  ZINC000052999724    0.1600
     40 H40        -6.0020    4.7710   66.6996 H       1  ZINC000052999724    0.1500
     41 H41        -3.9305    3.5093   65.9539 H       1  ZINC000052999724    0.1800
     42 H42        -6.3376    0.8553   62.6472 H       1  ZINC000052999724    0.1000
     43 H43        -7.2773   -0.3740   61.7662 H       1  ZINC000052999724    0.0800
     44 H44        -6.6663    1.4107   60.2148 H       1  ZINC000052999724    0.1000
     45 H45        -7.3487    2.6398   61.3107 H       1  ZINC000052999724    0.0800
     46 H46       -13.4105    1.3978   56.9452 H       1  ZINC000052999724    0.1700
     47 H47       -12.7354   -0.9643   57.5489 H       1  ZINC000052999724    0.1400
@<TRIPOS>BOND
     1     1     2    1
     2     1    26    1
     3     1    27    1
     4     1    28    1
     5     2     3    1
     6     2     4    1
     7     2    29    1
     8     3    30    1
     9     3    31    1
    10     3    32    1
    11     4    25    1
    12     4     5    2
    13     5     6    1
    14     5    23    1
    15     6     7    2
    16     6     8   am
    17     8    22    1
    18     8     9    1
    19     9    10    1
    20     9    33    1
    21     9    34    1
    22    10    11    1
    23    10    35    1
    24    10    36    1
    25    11    12    1
    26    11    21    1
    27    11    37    1
    28    12    13   am
    29    12    38    1
    30    13    14    2
    31    13    15    2
    32    13    16    1
    33    16    20    1
    34    16    17    2
    35    17    18    1
    36    17    39    1
    37    18    19    2
    38    18    40    1
    39    19    20    1
    40    19    41    1
    41    21    22    1
    42    21    42    1
    43    21    43    1
    44    22    44    1
    45    22    45    1
    46    23    24    1
    47    24    25    2
    48    24    46    1
    49    25    47    1
@<TRIPOS>SUBSTRUCTURE
     1 ZINC000052999724        1 TEMP              0 ****  ****    0 ROOT


##########                                Name:    ZINC001362451754
##########                DOCK_Rotatable_Bonds:                   6
##########                         Heavy_Atoms:                  22
##########                    Molecular_Weight:             339.846
##########                DOCK_Rotatable_Bonds:                   6
##########                       Formal_Charge:         -0.00999987
##########                     HBond_Acceptors:                   7
##########                        HBond_Donors:                   1
##########                         Heavy_Atoms:                  22
##########                          Grid_Score:          -26.191393
##########                     Grid_vdw_energy:          -25.375675
##########                      Grid_es_energy:           -0.815718
##########           Internal_energy_repulsive:           14.908547

@<TRIPOS>MOLECULE
ZINC001362451754
 40 42 1 0 0
SMALL
USER_CHARGES


@<TRIPOS>ATOM
      1 C1         -8.0487    0.5551   60.3891 C.3     1  ZINC001362451754   -0.1700
      2 C2         -8.3503   -0.0059   58.9979 C.3     1  ZINC001362451754    0.1400
      3 H3         -7.7493   -0.8971   58.8170 H       1  ZINC001362451754    0.0800
      4 C4         -9.8499   -0.3525   58.8855 C.3     1  ZINC001362451754   -0.1000
      5 H5         -9.9950   -1.2434   58.2745 H       1  ZINC001362451754    0.1000
      6 C6        -10.4679   -0.5392   60.2727 C.3     1  ZINC001362451754    0.0900
      7 O7        -11.8473   -0.8865   60.1369 O.3     1  ZINC001362451754   -0.5700
      8 C8        -10.4438    0.8972   58.1837 C.3     1  ZINC001362451754   -0.1200
      9 C9         -9.2960    1.2929   57.2249 C.3     1  ZINC001362451754    0.0900
     10 N10        -8.0592    1.0096   57.9754 N.am    1  ZINC001362451754   -0.6100
     11 C11        -6.8612    1.5896   57.7631 C.2     1  ZINC001362451754    0.6100
     12 O12        -5.9041    1.2770   58.4467 O.2     1  ZINC001362451754   -0.5200
     13 C13        -6.7113    2.5972   56.7091 C.2     1  ZINC001362451754   -0.2500
     14 C14        -6.7623    3.9503   56.8929 C.2     1  ZINC001362451754   -0.0500
     15 C15        -6.5967    4.6636   55.7295 C.2     1  ZINC001362451754   -0.1100
     16 C16        -6.4059    3.9227   54.6316 C.2     1  ZINC001362451754   -0.2500
     17 C17        -6.1981    4.4834   53.2483 C.3     1  ZINC001362451754    0.2100
     18 N18        -5.6045    3.4560   52.3890 N.pl3   1  ZINC001362451754   -0.3700
     19 C19        -4.2848    3.2614   52.1788 C.2     1  ZINC001362451754    0.0700
     20 C20        -4.1526    2.2167   51.3281 C.2     1  ZINC001362451754   -0.1800
     21 Cl21       -2.6564    1.5598   50.7418 Cl      1  ZINC001362451754   -0.0400
     22 C22        -5.4353    1.7638   51.0002 C.2     1  ZINC001362451754    0.0700
     23 N23        -6.3058    2.5058   51.6355 N.2     1  ZINC001362451754   -0.2700
     24 S24        -6.4376    2.2583   55.0055 S.3     1  ZINC001362451754    0.2300
     25 H25        -8.6492    1.4489   60.5584 H       1  ZINC001362451754    0.0600
     26 H26        -8.2911   -0.1937   61.1432 H       1  ZINC001362451754    0.0700
     27 H27        -6.9911    0.8098   60.4567 H       1  ZINC001362451754    0.0700
     28 H28        -9.9428   -1.3355   60.8002 H       1  ZINC001362451754    0.0500
     29 H29       -10.3808    0.3893   60.8371 H       1  ZINC001362451754    0.0500
     30 H30       -11.9993   -1.8173   59.9237 H       1  ZINC001362451754    0.3800
     31 H31       -11.3473    0.6419   57.6298 H       1  ZINC001362451754    0.0900
     32 H32       -10.6403    1.6927   58.9025 H       1  ZINC001362451754    0.0800
     33 H33        -9.3556    2.3529   56.9781 H       1  ZINC001362451754    0.0800
     34 H34        -9.3367    0.6886   56.3186 H       1  ZINC001362451754    0.0800
     35 H35        -6.9212    4.4132   57.8556 H       1  ZINC001362451754    0.1600
     36 H36        -6.6153    5.7432   55.7040 H       1  ZINC001362451754    0.1500
     37 H37        -7.1575    4.7935   52.8340 H       1  ZINC001362451754    0.1100
     38 H38        -5.5302    5.3431   53.3013 H       1  ZINC001362451754    0.1100
     39 H39        -3.4793    3.8348   52.6133 H       1  ZINC001362451754    0.1800
     40 H40        -5.6669    0.9434   50.3369 H       1  ZINC001362451754    0.1900
@<TRIPOS>BOND
     1     1     2    1
     2     1    25    1
     3     1    26    1
     4     1    27    1
     5     2     3    1
     6     2    10    1
     7     2     4    1
     8     4     5    1
     9     4     6    1
    10     4     8    1
    11     6     7    1
    12     6    28    1
    13     6    29    1
    14     7    30    1
    15     8     9    1
    16     8    31    1
    17     8    32    1
    18     9    10    1
    19     9    33    1
    20     9    34    1
    21    10    11   am
    22    11    12    2
    23    11    13    1
    24    13    24    1
    25    13    14    2
    26    14    15    1
    27    14    35    1
    28    15    16    2
    29    15    36    1
    30    16    17    1
    31    16    24    1
    32    17    18    1
    33    17    37    1
    34    17    38    1
    35    18    23    1
    36    18    19    1
    37    19    20    2
    38    19    39    1
    39    20    21    1
    40    20    22    1
    41    22    23    2
    42    22    40    1
@<TRIPOS>SUBSTRUCTURE
     1 ZINC001362451754        1 TEMP              0 ****  ****    0 ROOT


##########                                Name:    ZINC000826052721
##########                DOCK_Rotatable_Bonds:                   3
##########                         Heavy_Atoms:                  29
##########                    Molecular_Weight:             393.399
##########                DOCK_Rotatable_Bonds:                   3
##########                       Formal_Charge:        -4.47035e-07
##########                     HBond_Acceptors:                   9
##########                        HBond_Donors:                   2
##########                         Heavy_Atoms:                  29
##########                          Grid_Score:          -26.182528
##########                     Grid_vdw_energy:          -23.806164
##########                      Grid_es_energy:           -2.376364
##########           Internal_energy_repulsive:           19.307320

@<TRIPOS>MOLECULE
ZINC000826052721
 46 50 1 0 0
SMALL
USER_CHARGES


@<TRIPOS>ATOM
      1 C1         -4.6743    1.2686   51.7266 C.3     1  ZINC000826052721   -0.0400
      2 N2         -6.0285    1.7604   52.0135 N.4     1  ZINC000826052721   -0.3800
      3 H3         -6.6664    0.9805   52.0686 H       1  ZINC000826052721    0.4300
      4 C4         -6.4565    2.6697   50.9467 C.3     1  ZINC000826052721    0.0500
      5 C5         -7.7791    3.3027   51.2893 C.ar    1  ZINC000826052721   -0.1300
      6 C6         -8.5256    3.8722   50.2690 C.ar    1  ZINC000826052721   -0.1000
      7 C7         -9.7409    4.4679   50.5424 C.ar    1  ZINC000826052721   -0.1000
      8 C8        -10.2171    4.4975   51.8396 C.ar    1  ZINC000826052721   -0.0800
      9 C9         -9.4757    3.9296   52.8569 C.ar    1  ZINC000826052721   -0.0800
     10 C10        -8.2565    3.3305   52.5829 C.ar    1  ZINC000826052721   -0.1200
     11 C11        -7.4793    2.7189   53.7206 C.3     1  ZINC000826052721    0.1100
     12 H12        -7.9306    1.7660   53.9967 H       1  ZINC000826052721    0.1100
     13 N13        -7.5084    3.6262   54.8754 N.3     1  ZINC000826052721   -0.6200
     14 C14        -6.9944    3.0110   56.0018 C.ar    1  ZINC000826052721    0.1600
     15 C15        -5.7398    3.3653   56.5098 C.ar    1  ZINC000826052721   -0.0400
     16 C16        -4.9349    4.4115   55.8465 C.2     1  ZINC000826052721    0.0700
     17 N17        -5.1837    4.9827   54.6655 N.2     1  ZINC000826052721   -0.3800
     18 N18        -4.2500    5.8449   54.4483 N.2     1  ZINC000826052721   -0.1600
     19 N19        -3.4231    5.8337   55.4342 N.2     1  ZINC000826052721   -0.1700
     20 N20        -3.8121    4.9684   56.3071 N.pl3   1  ZINC000826052721   -0.3400
     21 C21        -5.2559    2.7208   57.6573 C.ar    1  ZINC000826052721    0.1800
     22 N22        -5.9448    1.7866   58.2630 N.ar    1  ZINC000826052721   -0.4700
     23 C23        -7.1497    1.3979   57.8246 C.ar    1  ZINC000826052721    0.0900
     24 C24        -7.8678    0.3901   58.4937 C.ar    1  ZINC000826052721    0.1700
     25 F25        -7.3463   -0.1979   59.5925 F       1  ZINC000826052721   -0.1100
     26 C26        -9.0925    0.0093   58.0302 C.ar    1  ZINC000826052721   -0.1900
     27 C27        -9.6479    0.6033   56.8984 C.ar    1  ZINC000826052721    0.1300
     28 F28       -10.8631    0.2044   56.4629 F       1  ZINC000826052721   -0.1300
     29 C29        -8.9781    1.5835   56.2247 C.ar    1  ZINC000826052721   -0.1500
     30 C30        -7.7172    1.9983   56.6756 C.ar    1  ZINC000826052721   -0.0600
     31 C31        -6.0297    2.4892   53.2908 C.3     1  ZINC000826052721    0.0000
     32 H32        -3.9857    2.1118   51.6710 H       1  ZINC000826052721    0.1200
     33 H33        -4.3574    0.5925   52.5208 H       1  ZINC000826052721    0.1300
     34 H34        -4.6750    0.7366   50.7754 H       1  ZINC000826052721    0.1200
     35 H35        -6.5557    2.1107   50.0162 H       1  ZINC000826052721    0.1400
     36 H36        -5.7069    3.4505   50.8178 H       1  ZINC000826052721    0.1400
     37 H37        -8.1547    3.8493   49.2549 H       1  ZINC000826052721    0.1300
     38 H38       -10.3185    4.9097   49.7440 H       1  ZINC000826052721    0.1300
     39 H39       -11.1669    4.9634   52.0571 H       1  ZINC000826052721    0.1300
     40 H40        -9.8479    3.9519   53.8705 H       1  ZINC000826052721    0.1400
     41 H41        -8.4430    3.9669   55.0442 H       1  ZINC000826052721    0.4100
     42 H42        -4.2886    2.9993   58.0490 H       1  ZINC000826052721    0.1800
     43 H43        -9.6400   -0.7647   58.5476 H       1  ZINC000826052721    0.1600
     44 H44        -9.4172    2.0369   55.3483 H       1  ZINC000826052721    0.1400
     45 H45        -5.5287    3.4491   53.1658 H       1  ZINC000826052721    0.1400
     46 H46        -5.5127    1.8995   54.0479 H       1  ZINC000826052721    0.1400
@<TRIPOS>BOND
     1     1     2    1
     2     1    32    1
     3     1    33    1
     4     1    34    1
     5     2     3    1
     6     2    31    1
     7     2     4    1
     8     4     5    1
     9     4    35    1
    10     4    36    1
    11     5    10   ar
    12     5     6   ar
    13     6     7   ar
    14     6    37    1
    15     7     8   ar
    16     7    38    1
    17     8     9   ar
    18     8    39    1
    19     9    10   ar
    20     9    40    1
    21    10    11    1
    22    11    12    1
    23    11    13    1
    24    11    31    1
    25    13    14    1
    26    13    41    1
    27    14    30   ar
    28    14    15   ar
    29    15    16    1
    30    15    21   ar
    31    16    20    1
    32    16    17    2
    33    17    18    1
    34    18    19    2
    35    19    20    1
    36    21    22   ar
    37    21    42    1
    38    22    23   ar
    39    23    30   ar
    40    23    24   ar
    41    24    25    1
    42    24    26   ar
    43    26    27   ar
    44    26    43    1
    45    27    28    1
    46    27    29   ar
    47    29    30   ar
    48    29    44    1
    49    31    45    1
    50    31    46    1
@<TRIPOS>SUBSTRUCTURE
     1 ZINC000826052721        1 TEMP              0 ****  ****    0 ROOT


##########                                Name:    ZINC000650955167
##########                DOCK_Rotatable_Bonds:                   9
##########                         Heavy_Atoms:                  26
##########                    Molecular_Weight:             361.484
##########                DOCK_Rotatable_Bonds:                   9
##########                       Formal_Charge:        -7.07805e-07
##########                     HBond_Acceptors:                   6
##########                        HBond_Donors:                   2
##########                         Heavy_Atoms:                  26
##########                          Grid_Score:          -26.176825
##########                     Grid_vdw_energy:          -25.430891
##########                      Grid_es_energy:           -0.745934
##########           Internal_energy_repulsive:           28.843269

@<TRIPOS>MOLECULE
ZINC000650955167
 57 59 1 0 0
SMALL
USER_CHARGES


@<TRIPOS>ATOM
      1 C1         -5.1514    1.8047   51.0868 C.3     1  ZINC000650955167    0.0200
      2 O2         -5.2840    1.7579   52.5089 O.3     1  ZINC000650955167   -0.3200
      3 C3         -6.5137    1.4590   53.0044 C.ar    1  ZINC000650955167    0.1300
      4 C4         -7.1082    0.2432   52.7008 C.ar    1  ZINC000650955167   -0.2000
      5 C5         -8.3583   -0.0585   53.2062 C.ar    1  ZINC000650955167   -0.0800
      6 C6         -9.0165    0.8504   54.0135 C.ar    1  ZINC000650955167   -0.1500
      7 C7         -8.4261    2.0634   54.3173 C.ar    1  ZINC000650955167   -0.0800
      8 C8         -7.1739    2.3672   53.8196 C.ar    1  ZINC000650955167   -0.1100
      9 C9         -6.5308    3.6890   54.1514 C.3     1  ZINC000650955167   -0.0800
     10 C10        -5.3841    3.4646   55.1391 C.3     1  ZINC000650955167    0.1800
     11 H11        -4.6413    2.8055   54.6898 H       1  ZINC000650955167    0.0900
     12 N12        -5.9064    2.8499   56.3622 N.am    1  ZINC000650955167   -0.7300
     13 C13        -6.8082    3.5097   57.1158 C.2     1  ZINC000650955167    0.7400
     14 O14        -7.1893    4.6144   56.7800 O.2     1  ZINC000650955167   -0.5800
     15 N15        -7.2875    2.9449   58.2418 N.am    1  ZINC000650955167   -0.6700
     16 C16        -8.2489    3.3214   59.2890 C.3     1  ZINC000650955167    0.1100
     17 C17        -7.4714    2.4147   60.2531 C.3     1  ZINC000650955167    0.0300
     18 N18        -8.3207    1.6298   61.1590 N.3     1  ZINC000650955167   -0.5100
     19 C19        -9.2082    2.5100   61.9485 C.3     1  ZINC000650955167    0.0400
     20 C20        -9.3508    1.8016   63.3187 C.3     1  ZINC000650955167   -0.1600
     21 C21        -7.9263    1.2218   63.5215 C.3     1  ZINC000650955167    0.0800
     22 H22        -7.2562    1.9792   63.9279 H       1  ZINC000650955167    0.0600
     23 O23        -7.9642    0.0742   64.3722 O.3     1  ZINC000650955167   -0.5600
     24 C24        -7.5032    0.8305   62.0899 C.3     1  ZINC000650955167    0.0500
     25 C25        -7.0840    1.6779   58.9604 C.3     1  ZINC000650955167    0.1400
     26 C26        -4.7348    4.8073   55.4804 C.3     1  ZINC000650955167   -0.1100
     27 C27        -3.8476    4.6451   56.7165 C.3     1  ZINC000650955167   -0.1400
     28 C28        -3.8830    5.2767   54.2993 C.3     1  ZINC000650955167   -0.1500
     29 H29        -4.1227    2.0531   50.8258 H       1  ZINC000650955167    0.1000
     30 H30        -5.4085    0.8327   50.6657 H       1  ZINC000650955167    0.0600
     31 H31        -5.8220    2.5639   50.6842 H       1  ZINC000650955167    0.0600
     32 H32        -6.5948   -0.4669   52.0696 H       1  ZINC000650955167    0.1300
     33 H33        -8.8217   -1.0050   52.9701 H       1  ZINC000650955167    0.1200
     34 H34        -9.9937    0.6129   54.4074 H       1  ZINC000650955167    0.1200
     35 H35        -8.9425    2.7719   54.9480 H       1  ZINC000650955167    0.1300
     36 H36        -6.1416    4.1427   53.2399 H       1  ZINC000650955167    0.0900
     37 H37        -7.2717    4.3513   54.5992 H       1  ZINC000650955167    0.0800
     38 H38        -5.6033    1.9681   56.6294 H       1  ZINC000650955167    0.4000
     39 H39        -8.2073    4.3771   59.5572 H       1  ZINC000650955167    0.0700
     40 H40        -9.2636    2.9758   59.0913 H       1  ZINC000650955167    0.0900
     41 H41        -6.6418    2.9080   60.7596 H       1  ZINC000650955167    0.0900
     42 H42        -8.7535    3.4926   62.0749 H       1  ZINC000650955167    0.0500
     43 H43       -10.1809    2.6004   61.4650 H       1  ZINC000650955167    0.0900
     44 H44        -9.5970    2.5163   64.1041 H       1  ZINC000650955167    0.0800
     45 H45       -10.0934    1.0051   63.2710 H       1  ZINC000650955167    0.0900
     46 H46        -7.0986   -0.3269   64.5303 H       1  ZINC000650955167    0.3800
     47 H47        -7.6862   -0.2314   61.9262 H       1  ZINC000650955167    0.0900
     48 H48        -6.4467    1.0542   61.9413 H       1  ZINC000650955167    0.0700
     49 H49        -7.7895    0.8966   58.6779 H       1  ZINC000650955167    0.0900
     50 H50        -6.0490    1.3360   58.9490 H       1  ZINC000650955167    0.0800
     51 H51        -5.5109    5.5448   55.6845 H       1  ZINC000650955167    0.0700
     52 H52        -3.0714    3.9076   56.5124 H       1  ZINC000650955167    0.0600
     53 H53        -3.3850    5.6017   56.9595 H       1  ZINC000650955167    0.0400
     54 H54        -4.4545    4.3107   57.5578 H       1  ZINC000650955167    0.0500
     55 H55        -4.5150    5.3921   53.4188 H       1  ZINC000650955167    0.0600
     56 H56        -3.4204    6.2332   54.5424 H       1  ZINC000650955167    0.0600
     57 H57        -3.1068    4.5390   54.0953 H       1  ZINC000650955167    0.0600
@<TRIPOS>BOND
     1     1     2    1
     2     1    29    1
     3     1    30    1
     4     1    31    1
     5     2     3    1
     6     3     8   ar
     7     3     4   ar
     8     4     5   ar
     9     4    32    1
    10     5     6   ar
    11     5    33    1
    12     6     7   ar
    13     6    34    1
    14     7     8   ar
    15     7    35    1
    16     8     9    1
    17     9    10    1
    18     9    36    1
    19     9    37    1
    20    10    11    1
    21    10    12    1
    22    10    26    1
    23    12    13   am
    24    12    38    1
    25    13    14    2
    26    13    15   am
    27    15    25    1
    28    15    16    1
    29    16    17    1
    30    16    39    1
    31    16    40    1
    32    17    18    1
    33    17    25    1
    34    17    41    1
    35    18    24    1
    36    18    19    1
    37    19    20    1
    38    19    42    1
    39    19    43    1
    40    20    21    1
    41    20    44    1
    42    20    45    1
    43    21    22    1
    44    21    23    1
    45    21    24    1
    46    23    46    1
    47    24    47    1
    48    24    48    1
    49    25    49    1
    50    25    50    1
    51    26    27    1
    52    26    28    1
    53    26    51    1
    54    27    52    1
    55    27    53    1
    56    27    54    1
    57    28    55    1
    58    28    56    1
    59    28    57    1
@<TRIPOS>SUBSTRUCTURE
     1 ZINC000650955167        1 TEMP              0 ****  ****    0 ROOT


##########                                Name:    ZINC000302023461
##########                DOCK_Rotatable_Bonds:                   3
##########                         Heavy_Atoms:                  25
##########                    Molecular_Weight:             356.362
##########                DOCK_Rotatable_Bonds:                   3
##########                       Formal_Charge:        -2.08616e-07
##########                     HBond_Acceptors:                   9
##########                        HBond_Donors:                   1
##########                         Heavy_Atoms:                  25
##########                          Grid_Score:          -26.169407
##########                     Grid_vdw_energy:          -25.564579
##########                      Grid_es_energy:           -0.604829
##########           Internal_energy_repulsive:           19.283886

@<TRIPOS>MOLECULE
ZINC000302023461
 37 40 1 0 0
SMALL
USER_CHARGES


@<TRIPOS>ATOM
      1 O1        -13.1449    1.1553   58.4474 O.2     1  ZINC000302023461   -0.1600
      2 N2        -12.5061    0.2551   57.9324 N.pl3   1  ZINC000302023461    0.0200
      3 O3        -12.9737   -0.3634   56.9931 O.2     1  ZINC000302023461   -0.1300
      4 C4        -11.1590   -0.0832   58.4445 C.ar    1  ZINC000302023461    0.0000
      5 C5        -10.6281    0.6173   59.5092 C.ar    1  ZINC000302023461   -0.0600
      6 C6         -9.3695    0.3018   59.9883 C.ar    1  ZINC000302023461   -0.0900
      7 C7         -8.6385   -0.7160   59.4034 C.ar    1  ZINC000302023461   -0.0800
      8 C8         -9.1631   -1.4210   58.3381 C.ar    1  ZINC000302023461   -0.0500
      9 C9        -10.4293   -1.1104   57.8575 C.ar    1  ZINC000302023461   -0.1100
     10 S10       -11.1029   -2.0075   56.4989 S.3     1  ZINC000302023461    0.1900
     11 C11       -10.2527   -1.3269   55.1139 C.2     1  ZINC000302023461    0.2100
     12 N12       -10.5071   -1.5986   53.8545 N.2     1  ZINC000302023461   -0.3200
     13 N13        -9.6048   -0.8481   53.0833 N.pl3   1  ZINC000302023461   -0.4700
     14 C14        -8.8429   -0.1522   53.9571 C.2     1  ZINC000302023461    0.3500
     15 C15        -7.7506    0.7813   53.6075 C.ar    1  ZINC000302023461   -0.0400
     16 C16        -7.7318    2.0687   54.1447 C.ar    1  ZINC000302023461   -0.0900
     17 C17        -6.7130    2.9378   53.8156 C.ar    1  ZINC000302023461   -0.1100
     18 C18        -5.7037    2.5371   52.9502 C.ar    1  ZINC000302023461    0.0800
     19 O19        -4.7129    3.4142   52.6327 O.3     1  ZINC000302023461   -0.3000
     20 C20        -3.5224    2.8617   52.0609 C.3     1  ZINC000302023461    0.0200
     21 C21        -3.9313    1.8671   50.9662 C.3     1  ZINC000302023461    0.0200
     22 O22        -4.7306    0.8428   51.5675 O.3     1  ZINC000302023461   -0.3000
     23 C23        -5.7152    1.2528   52.4136 C.ar    1  ZINC000302023461    0.0500
     24 C24        -6.7326    0.3750   52.7438 C.ar    1  ZINC000302023461   -0.0500
     25 N25        -9.2502   -0.4480   55.1757 N.2     1  ZINC000302023461   -0.5000
     26 H26       -11.1963    1.4127   59.9683 H       1  ZINC000302023461    0.1600
     27 H27        -8.9564    0.8519   60.8208 H       1  ZINC000302023461    0.1500
     28 H28        -7.6561   -0.9597   59.7801 H       1  ZINC000302023461    0.1500
     29 H29        -8.5914   -2.2153   57.8813 H       1  ZINC000302023461    0.1600
     30 H30        -9.5408   -0.8323   52.1155 H       1  ZINC000302023461    0.4400
     31 H31        -8.5152    2.3847   54.8178 H       1  ZINC000302023461    0.1300
     32 H32        -6.7003    3.9342   54.2323 H       1  ZINC000302023461    0.1500
     33 H33        -2.9191    3.6589   51.6266 H       1  ZINC000302023461    0.1300
     34 H34        -2.9500    2.3453   52.8316 H       1  ZINC000302023461    0.0800
     35 H35        -4.5098    2.3820   50.1991 H       1  ZINC000302023461    0.0800
     36 H36        -3.0406    1.4243   50.5204 H       1  ZINC000302023461    0.1300
     37 H37        -6.7411   -0.6225   52.3300 H       1  ZINC000302023461    0.1600
@<TRIPOS>BOND
     1     1     2    2
     2     2     3    2
     3     2     4    1
     4     4     9   ar
     5     4     5   ar
     6     5     6   ar
     7     5    26    1
     8     6     7   ar
     9     6    27    1
    10     7     8   ar
    11     7    28    1
    12     8     9   ar
    13     8    29    1
    14     9    10    1
    15    10    11    1
    16    11    25    1
    17    11    12    2
    18    12    13    1
    19    13    14    1
    20    13    30    1
    21    14    15    1
    22    14    25    2
    23    15    24   ar
    24    15    16   ar
    25    16    17   ar
    26    16    31    1
    27    17    18   ar
    28    17    32    1
    29    18    23   ar
    30    18    19    1
    31    19    20    1
    32    20    21    1
    33    20    33    1
    34    20    34    1
    35    21    22    1
    36    21    35    1
    37    21    36    1
    38    22    23    1
    39    23    24   ar
    40    24    37    1
@<TRIPOS>SUBSTRUCTURE
     1 ZINC000302023461        1 TEMP              0 ****  ****    0 ROOT


##########                                Name:    ZINC000481050680
##########                DOCK_Rotatable_Bonds:                   7
##########                         Heavy_Atoms:                  29
##########                    Molecular_Weight:              412.46
##########                DOCK_Rotatable_Bonds:                   7
##########                       Formal_Charge:          -0.0199997
##########                     HBond_Acceptors:                   7
##########                        HBond_Donors:                   1
##########                         Heavy_Atoms:                  29
##########                          Grid_Score:          -26.126295
##########                     Grid_vdw_energy:          -24.387100
##########                      Grid_es_energy:           -1.739194
##########           Internal_energy_repulsive:           18.780663

@<TRIPOS>MOLECULE
ZINC000481050680
 47 49 1 0 0
SMALL
USER_CHARGES


@<TRIPOS>ATOM
      1 N1         -9.9210   -1.6213   53.0024 N.1     1  ZINC000481050680   -0.3900
      2 C2         -9.7622   -1.1138   54.0062 C.1     1  ZINC000481050680    0.2500
      3 C3         -9.5619   -0.4739   55.2716 C.ar    1  ZINC000481050680    0.0200
      4 C4         -8.9814    0.7944   55.3317 C.ar    1  ZINC000481050680   -0.0800
      5 C5         -8.7912    1.4064   56.5536 C.ar    1  ZINC000481050680   -0.0800
      6 C6         -9.1740    0.7670   57.7186 C.ar    1  ZINC000481050680   -0.1000
      7 C7         -8.9630    1.4422   59.0492 C.3     1  ZINC000481050680   -0.5900
      8 S8         -7.5345    0.6992   59.8846 S.o2    1  ZINC000481050680    2.6000
      9 O9         -7.9436   -0.3945   60.6943 O.2     1  ZINC000481050680   -0.9300
     10 O10        -6.4398    0.5770   58.9867 O.2     1  ZINC000481050680   -0.9400
     11 N11        -7.0457    1.8505   60.9699 N.am    1  ZINC000481050680   -1.1100
     12 C12        -7.9649    2.3103   62.0139 C.3     1  ZINC000481050680    0.2100
     13 H13        -8.9916    2.1080   61.7087 H       1  ZINC000481050680    0.1000
     14 C14        -7.7833    3.8146   62.2269 C.3     1  ZINC000481050680   -0.0800
     15 C15        -8.5648    4.2481   63.4402 C.ar    1  ZINC000481050680   -0.0900
     16 C16        -9.7181    3.5743   63.7964 C.ar    1  ZINC000481050680   -0.1200
     17 C17       -10.4352    3.9720   64.9093 C.ar    1  ZINC000481050680   -0.1200
     18 C18        -9.9986    5.0431   65.6663 C.ar    1  ZINC000481050680   -0.1200
     19 C19        -8.8450    5.7164   65.3105 C.ar    1  ZINC000481050680   -0.1200
     20 C20        -8.1256    5.3160   64.2001 C.ar    1  ZINC000481050680   -0.1200
     21 C21        -7.6700    1.5816   63.2994 C.ar    1  ZINC000481050680   -0.1300
     22 C22        -6.5612    1.9243   64.0495 C.ar    1  ZINC000481050680   -0.0700
     23 C23        -6.2904    1.2558   65.2292 C.ar    1  ZINC000481050680   -0.1300
     24 C24        -7.1279    0.2438   65.6592 C.ar    1  ZINC000481050680   -0.0900
     25 C25        -8.2372   -0.1011   64.9104 C.ar    1  ZINC000481050680   -0.1500
     26 C26        -8.5132    0.5720   63.7325 C.ar    1  ZINC000481050680    0.1100
     27 F27        -9.5972    0.2358   62.9998 F       1  ZINC000481050680   -0.1400
     28 C28        -9.7514   -0.4919   57.6675 C.ar    1  ZINC000481050680    0.1200
     29 F29       -10.1234   -1.1103   58.8097 F       1  ZINC000481050680   -0.1200
     30 C30        -9.9517   -1.1135   56.4500 C.ar    1  ZINC000481050680   -0.1000
     31 H31        -8.6814    1.2955   54.4232 H       1  ZINC000481050680    0.1500
     32 H32        -8.3419    2.3875   56.6004 H       1  ZINC000481050680    0.1500
     33 H33        -8.7797    2.5053   58.8923 H       1  ZINC000481050680    0.1500
     34 H34        -9.8521    1.3141   59.6666 H       1  ZINC000481050680    0.1500
     35 H35        -6.1506    2.2204   60.9145 H       1  ZINC000481050680    0.4200
     36 H36        -6.7265    4.0351   62.3775 H       1  ZINC000481050680    0.0900
     37 H37        -8.1452    4.3518   61.3504 H       1  ZINC000481050680    0.0900
     38 H38       -10.0592    2.7374   63.2051 H       1  ZINC000481050680    0.1200
     39 H39       -11.3365    3.4459   65.1873 H       1  ZINC000481050680    0.1200
     40 H40       -10.5593    5.3543   66.5354 H       1  ZINC000481050680    0.1200
     41 H41        -8.5041    6.5535   65.9017 H       1  ZINC000481050680    0.1200
     42 H42        -7.2242    5.8420   63.9221 H       1  ZINC000481050680    0.1200
     43 H43        -5.9058    2.7144   63.7141 H       1  ZINC000481050680    0.1300
     44 H44        -5.4236    1.5244   65.8148 H       1  ZINC000481050680    0.1300
     45 H45        -6.9151   -0.2779   66.5807 H       1  ZINC000481050680    0.1300
     46 H46        -8.8911   -0.8923   65.2463 H       1  ZINC000481050680    0.1400
     47 H47       -10.4019   -2.0943   56.4102 H       1  ZINC000481050680    0.1600
@<TRIPOS>BOND
     1     1     2    3
     2     2     3    1
     3     3    30   ar
     4     3     4   ar
     5     4     5   ar
     6     4    31    1
     7     5     6   ar
     8     5    32    1
     9     6     7    1
    10     6    28   ar
    11     7     8    1
    12     7    33    1
    13     7    34    1
    14     8     9    2
    15     8    10    2
    16     8    11   am
    17    11    12    1
    18    11    35    1
    19    12    13    1
    20    12    14    1
    21    12    21    1
    22    14    15    1
    23    14    36    1
    24    14    37    1
    25    15    20   ar
    26    15    16   ar
    27    16    17   ar
    28    16    38    1
    29    17    18   ar
    30    17    39    1
    31    18    19   ar
    32    18    40    1
    33    19    20   ar
    34    19    41    1
    35    20    42    1
    36    21    26   ar
    37    21    22   ar
    38    22    23   ar
    39    22    43    1
    40    23    24   ar
    41    23    44    1
    42    24    25   ar
    43    24    45    1
    44    25    26   ar
    45    25    46    1
    46    26    27    1
    47    28    29    1
    48    28    30   ar
    49    30    47    1
@<TRIPOS>SUBSTRUCTURE
     1 ZINC000481050680        1 TEMP              0 ****  ****    0 ROOT


##########                                Name:    ZINC000461336108
##########                DOCK_Rotatable_Bonds:                   5
##########                         Heavy_Atoms:                  26
##########                    Molecular_Weight:             373.522
##########                DOCK_Rotatable_Bonds:                   5
##########                       Formal_Charge:        -3.42727e-07
##########                     HBond_Acceptors:                   7
##########                        HBond_Donors:                   0
##########                         Heavy_Atoms:                  26
##########                          Grid_Score:          -26.114584
##########                     Grid_vdw_energy:          -25.865658
##########                      Grid_es_energy:           -0.248926
##########           Internal_energy_repulsive:           13.919722

@<TRIPOS>MOLECULE
ZINC000461336108
 53 56 1 0 0
SMALL
USER_CHARGES


@<TRIPOS>ATOM
      1 C1         -6.6988    1.2646   52.8937 C.3     1  ZINC000461336108   -0.1300
      2 C2         -7.6719    2.4385   53.0204 C.3     1  ZINC000461336108    0.0700
      3 H3         -7.3977    3.0440   53.8843 H       1  ZINC000461336108    0.0800
      4 C4         -7.6013    3.2810   51.7783 C.2     1  ZINC000461336108    0.5300
      5 O5         -6.5128    3.5230   51.3013 O.2     1  ZINC000461336108   -0.5300
      6 N6         -8.6885    3.7748   51.1763 N.am    1  ZINC000461336108   -0.6100
      7 C7         -8.5105    4.6162   49.9904 C.3     1  ZINC000461336108    0.0700
      8 C8        -10.0450    3.5125   51.6483 C.3     1  ZINC000461336108    0.1200
      9 C9        -10.0105    3.0220   53.0970 C.3     1  ZINC000461336108    0.0400
     10 N10        -9.0362    1.9240   53.1986 N.3     1  ZINC000461336108   -0.4300
     11 C11        -9.1596    1.2610   54.4092 C.2     1  ZINC000461336108    0.3300
     12 N12        -8.8638    1.7399   55.5946 N.2     1  ZINC000461336108   -0.2500
     13 N13        -9.1013    0.8544   56.4951 N.2     1  ZINC000461336108   -0.2800
     14 C14        -9.5590   -0.2333   55.9426 C.2     1  ZINC000461336108    0.2000
     15 C15        -9.9567   -1.4991   56.6571 C.3     1  ZINC000461336108   -0.0300
     16 C16       -11.0760   -1.1920   57.6538 C.3     1  ZINC000461336108   -0.0900
     17 C17       -12.3826   -0.8270   56.9062 C.3     1  ZINC000461336108   -0.1200
     18 C18       -13.4771   -1.1492   57.9538 C.3     1  ZINC000461336108   -0.1200
     19 C19       -12.9686   -2.4275   58.6515 C.3     1  ZINC000461336108   -0.1300
     20 C20       -11.4420   -2.4548   58.4608 C.3     1  ZINC000461336108   -0.1200
     21 N21        -9.6173   -0.0111   54.5945 N.pl3   1  ZINC000461336108   -0.4900
     22 C22       -10.0691   -0.9475   53.5625 C.3     1  ZINC000461336108    0.1700
     23 C23       -11.4087   -0.5038   53.0333 C.2     1  ZINC000461336108   -0.2400
     24 C24       -11.9158   -0.8391   51.8461 C.2     1  ZINC000461336108   -0.0900
     25 C25       -13.1666   -0.3112   51.5760 C.2     1  ZINC000461336108   -0.1400
     26 C26       -13.6751    0.4527   52.5440 C.2     1  ZINC000461336108   -0.2000
     27 S27       -12.5455    0.5290   53.8901 S.3     1  ZINC000461336108    0.1200
     28 H28        -6.9717    0.6581   52.0301 H       1  ZINC000461336108    0.0800
     29 H29        -5.6855    1.6448   52.7651 H       1  ZINC000461336108    0.0800
     30 H30        -6.7462    0.6545   53.7958 H       1  ZINC000461336108    0.0700
     31 H31        -7.4474    4.7138   49.7703 H       1  ZINC000461336108    0.0900
     32 H32        -9.0169    4.1582   49.1407 H       1  ZINC000461336108    0.0700
     33 H33        -8.9349    5.6026   50.1776 H       1  ZINC000461336108    0.0600
     34 H34       -10.6316    4.4295   51.5909 H       1  ZINC000461336108    0.0900
     35 H35       -10.5057    2.7507   51.0194 H       1  ZINC000461336108    0.0900
     36 H36        -9.7115    3.8397   53.7528 H       1  ZINC000461336108    0.0500
     37 H37       -10.9985    2.6624   53.3848 H       1  ZINC000461336108    0.1100
     38 H38       -10.3081   -2.2315   55.9304 H       1  ZINC000461336108    0.0800
     39 H39        -9.0953   -1.9011   57.1906 H       1  ZINC000461336108    0.1000
     40 H40       -10.7788   -0.3845   58.3230 H       1  ZINC000461336108    0.0900
     41 H41       -12.3962    0.2313   56.6463 H       1  ZINC000461336108    0.0600
     42 H42       -12.5047   -1.4459   56.0173 H       1  ZINC000461336108    0.0600
     43 H43       -13.5700   -0.3340   58.6714 H       1  ZINC000461336108    0.0700
     44 H44       -14.4319   -1.3367   57.4625 H       1  ZINC000461336108    0.0700
     45 H45       -13.2117   -2.3952   59.7135 H       1  ZINC000461336108    0.0700
     46 H46       -13.4180   -3.3078   58.1918 H       1  ZINC000461336108    0.0600
     47 H47       -11.1505   -3.3482   57.9085 H       1  ZINC000461336108    0.0700
     48 H48       -10.9442   -2.4356   59.4303 H       1  ZINC000461336108    0.0700
     49 H49        -9.3451   -0.9674   52.7478 H       1  ZINC000461336108    0.1200
     50 H50       -10.1604   -1.9452   53.9919 H       1  ZINC000461336108    0.1000
     51 H51       -11.3902   -1.4740   51.1483 H       1  ZINC000461336108    0.1400
     52 H52       -13.6908   -0.5030   50.6515 H       1  ZINC000461336108    0.1500
     53 H53       -14.6353    0.9460   52.5082 H       1  ZINC000461336108    0.1700
@<TRIPOS>BOND
     1     1     2    1
     2     1    28    1
     3     1    29    1
     4     1    30    1
     5     2     3    1
     6     2    10    1
     7     2     4    1
     8     4     5    2
     9     4     6   am
    10     6     7    1
    11     6     8    1
    12     7    31    1
    13     7    32    1
    14     7    33    1
    15     8     9    1
    16     8    34    1
    17     8    35    1
    18     9    10    1
    19     9    36    1
    20     9    37    1
    21    10    11    1
    22    11    21    1
    23    11    12    2
    24    12    13    1
    25    13    14    2
    26    14    15    1
    27    14    21    1
    28    15    16    1
    29    15    38    1
    30    15    39    1
    31    16    20    1
    32    16    17    1
    33    16    40    1
    34    17    18    1
    35    17    41    1
    36    17    42    1
    37    18    19    1
    38    18    43    1
    39    18    44    1
    40    19    20    1
    41    19    45    1
    42    19    46    1
    43    20    47    1
    44    20    48    1
    45    21    22    1
    46    22    23    1
    47    22    49    1
    48    22    50    1
    49    23    27    1
    50    23    24    2
    51    24    25    1
    52    24    51    1
    53    25    26    2
    54    25    52    1
    55    26    27    1
    56    26    53    1
@<TRIPOS>SUBSTRUCTURE
     1 ZINC000461336108        1 TEMP              0 ****  ****    0 ROOT


##########                                Name:    ZINC000951315041
##########                DOCK_Rotatable_Bonds:                   5
##########                         Heavy_Atoms:                  25
##########                    Molecular_Weight:             340.382
##########                DOCK_Rotatable_Bonds:                   5
##########                       Formal_Charge:          0.00999974
##########                     HBond_Acceptors:                   7
##########                        HBond_Donors:                   1
##########                         Heavy_Atoms:                  25
##########                          Grid_Score:          -26.105549
##########                     Grid_vdw_energy:          -26.142958
##########                      Grid_es_energy:            0.037408
##########           Internal_energy_repulsive:            9.650705

@<TRIPOS>MOLECULE
ZINC000951315041
 45 47 1 0 0
SMALL
USER_CHARGES


@<TRIPOS>ATOM
      1 C1        -13.9137   -1.4598   56.4905 C.3     1  ZINC000951315041    0.0500
      2 N2        -13.3621   -1.0766   55.1886 N.am    1  ZINC000951315041   -0.4900
      3 C3        -12.0353   -0.8896   55.0605 C.2     1  ZINC000951315041    0.1700
      4 C4        -11.4940   -0.5280   53.8438 C.2     1  ZINC000951315041   -0.2400
      5 C5        -10.0399   -0.3244   53.7085 C.2     1  ZINC000951315041    0.5800
      6 O6         -9.3380   -1.2193   53.2780 O.2     1  ZINC000951315041   -0.5200
      7 N7         -9.4886    0.8536   54.0618 N.am    1  ZINC000951315041   -0.6000
      8 C8        -10.3234    1.9443   54.5834 C.3     1  ZINC000951315041    0.1100
      9 C9        -10.0615    3.2055   53.7543 C.3     1  ZINC000951315041   -0.1300
     10 C10        -8.5611    3.5078   53.7530 C.3     1  ZINC000951315041   -0.1300
     11 C11        -7.8048    2.3422   53.1114 C.3     1  ZINC000951315041    0.1300
     12 H12        -8.1658    2.1902   52.0942 H       1  ZINC000951315041    0.1000
     13 N13        -6.3721    2.6465   53.0814 N.am    1  ZINC000951315041   -0.7200
     14 C14        -5.5835    2.0852   52.1435 C.2     1  ZINC000951315041    0.5700
     15 O15        -6.0609    1.3256   51.3234 O.2     1  ZINC000951315041   -0.5200
     16 C16        -4.1379    2.3936   52.1121 C.ar    1  ZINC000951315041   -0.1900
     17 C17        -3.5715    3.2480   53.0655 C.ar    1  ZINC000951315041   -0.0100
     18 C18        -2.2135    3.5039   52.9923 C.ar    1  ZINC000951315041   -0.1800
     19 C19        -1.4663    2.9132   51.9895 C.ar    1  ZINC000951315041    0.1300
     20 N20        -2.0275    2.1120   51.1038 N.ar    1  ZINC000951315041   -0.4900
     21 C21        -3.3139    1.8333   51.1351 C.ar    1  ZINC000951315041    0.1400
     22 C22        -8.0405    1.0693   53.9386 C.3     1  ZINC000951315041    0.1000
     23 C23       -12.3458   -0.3544   52.7260 C.2     1  ZINC000951315041    0.0100
     24 C24       -13.6828   -0.5491   52.8793 C.2     1  ZINC000951315041   -0.2300
     25 C25       -14.1889   -0.9223   54.1386 C.2     1  ZINC000951315041    0.5100
     26 O26       -15.3873   -1.0986   54.2811 O.2     1  ZINC000951315041   -0.5400
     27 H27       -14.9949   -1.5716   56.4083 H       1  ZINC000951315041    0.1100
     28 H28       -13.4738   -2.4055   56.8073 H       1  ZINC000951315041    0.0800
     29 H29       -13.6830   -0.6878   57.2244 H       1  ZINC000951315041    0.0800
     30 H30       -11.3899   -1.0233   55.9161 H       1  ZINC000951315041    0.1700
     31 H31       -11.3751    1.6684   54.5065 H       1  ZINC000951315041    0.1000
     32 H32       -10.0684    2.1331   55.6262 H       1  ZINC000951315041    0.0700
     33 H33       -10.4012    3.0453   52.7311 H       1  ZINC000951315041    0.0700
     34 H34       -10.6015    4.0461   54.1900 H       1  ZINC000951315041    0.0900
     35 H35        -8.3748    4.4187   53.1840 H       1  ZINC000951315041    0.0800
     36 H36        -8.2171    3.6435   54.7784 H       1  ZINC000951315041    0.0700
     37 H37        -5.9909    3.2517   53.7366 H       1  ZINC000951315041    0.4000
     38 H38        -4.1789    3.6961   53.8380 H       1  ZINC000951315041    0.1500
     39 H39        -1.7421    4.1584   53.7106 H       1  ZINC000951315041    0.1500
     40 H40        -0.4063    3.1113   51.9301 H       1  ZINC000951315041    0.1600
     41 H41        -3.7367    1.1724   50.3927 H       1  ZINC000951315041    0.1600
     42 H42        -7.5980    1.1889   54.9275 H       1  ZINC000951315041    0.0700
     43 H43        -7.5869    0.2163   53.4338 H       1  ZINC000951315041    0.0900
     44 H44       -11.9397   -0.0711   51.7662 H       1  ZINC000951315041    0.1400
     45 H45       -14.3509   -0.4217   52.0403 H       1  ZINC000951315041    0.1600
@<TRIPOS>BOND
     1     1     2    1
     2     1    27    1
     3     1    28    1
     4     1    29    1
     5     2    25   am
     6     2     3    1
     7     3     4    2
     8     3    30    1
     9     4     5    1
    10     4    23    1
    11     5     6    2
    12     5     7   am
    13     7    22    1
    14     7     8    1
    15     8     9    1
    16     8    31    1
    17     8    32    1
    18     9    10    1
    19     9    33    1
    20     9    34    1
    21    10    11    1
    22    10    35    1
    23    10    36    1
    24    11    12    1
    25    11    13    1
    26    11    22    1
    27    13    14   am
    28    13    37    1
    29    14    15    2
    30    14    16    1
    31    16    21   ar
    32    16    17   ar
    33    17    18   ar
    34    17    38    1
    35    18    19   ar
    36    18    39    1
    37    19    20   ar
    38    19    40    1
    39    20    21   ar
    40    21    41    1
    41    22    42    1
    42    22    43    1
    43    23    24    2
    44    23    44    1
    45    24    25    1
    46    24    45    1
    47    25    26    2
@<TRIPOS>SUBSTRUCTURE
     1 ZINC000951315041        1 TEMP              0 ****  ****    0 ROOT


##########                                Name:    ZINC000266467123
##########                DOCK_Rotatable_Bonds:                   9
##########                         Heavy_Atoms:                  25
##########                    Molecular_Weight:             337.421
##########                DOCK_Rotatable_Bonds:                   9
##########                       Formal_Charge:                0.02
##########                     HBond_Acceptors:                   5
##########                        HBond_Donors:                   3
##########                         Heavy_Atoms:                  25
##########                          Grid_Score:          -26.099888
##########                     Grid_vdw_energy:          -23.722372
##########                      Grid_es_energy:           -2.377517
##########           Internal_energy_repulsive:           11.706195

@<TRIPOS>MOLECULE
ZINC000266467123
 48 50 1 0 0
SMALL
USER_CHARGES


@<TRIPOS>ATOM
      1 C1         -5.0582    2.1299   51.7621 C.3     1  <0>        -0.1600
      2 C2         -5.9270    2.9280   52.7363 C.3     1  <0>         0.1500
      3 H3         -6.1047    3.9245   52.3320 H       1  <0>         0.1200
      4 N4         -5.2394    3.0394   54.0251 N.am    1  <0>        -0.7300
      5 C5         -5.6870    3.9062   54.9552 C.2     1  <0>         0.7100
      6 O6         -6.6624    4.5946   54.7250 O.2     1  <0>        -0.5900
      7 N7         -5.0535    4.0097   56.1401 N.am    1  <0>        -0.7100
      8 C8         -5.5411    4.9506   57.1516 C.3     1  <0>         0.1100
      9 H9         -5.6239    5.9881   56.8277 H       1  <0>         0.1400
     10 C10        -5.1408    4.6945   58.6060 C.3     1  <0>        -0.1900
     11 C11        -6.5797    4.4378   58.1512 C.3     1  <0>        -0.1500
     12 H12        -7.3456    5.1378   58.4851 H       1  <0>         0.1200
     13 C13        -7.0295    2.9813   58.0188 C.3     1  <0>        -0.0500
     14 C14        -7.0639    2.3403   59.3824 C.ar    1  <0>        -0.0800
     15 C15        -6.8569    0.9797   59.5118 C.ar    1  <0>        -0.1100
     16 C16        -6.8884    0.3917   60.7625 C.ar    1  <0>        -0.1200
     17 C17        -7.1266    1.1643   61.8837 C.ar    1  <0>        -0.1200
     18 C18        -7.3327    2.5251   61.7543 C.ar    1  <0>        -0.1200
     19 C19        -7.2969    3.1139   60.5040 C.ar    1  <0>        -0.1200
     20 C20        -7.2443    2.2218   52.9291 C.2     1  <0>         0.5100
     21 O21        -8.2368    2.6237   52.3597 O.2     1  <0>        -0.5100
     22 N22        -7.3192    1.1436   53.7342 N.am    1  <0>        -0.6700
     23 C23        -8.5423    0.4878   53.9132 C.ar    1  <0>         0.1400
     24 C24        -8.8528   -0.6272   53.1457 C.ar    1  <0>        -0.1400
     25 C25       -10.0610   -1.2722   53.3248 C.ar    1  <0>        -0.1000
     26 C26       -10.9610   -0.8087   54.2666 C.ar    1  <0>        -0.1300
     27 C27       -10.6550    0.3016   55.0321 C.ar    1  <0>        -0.1000
     28 C28        -9.4458    0.9471   54.8626 C.ar    1  <0>        -0.1200
     29 H29        -5.5696    2.0470   50.8032 H       1  <0>         0.0700
     30 H30        -4.1054    2.6406   51.6227 H       1  <0>         0.0800
     31 H31        -4.8805    1.1334   52.1665 H       1  <0>         0.0700
     32 H32        -4.4620    2.4893   54.2092 H       1  <0>         0.4100
     33 H33        -4.2747    3.4613   56.3232 H       1  <0>         0.4000
     34 H34        -4.5147    3.8260   58.8102 H       1  <0>         0.1000
     35 H35        -4.9607    5.5635   59.2389 H       1  <0>         0.1000
     36 H36        -8.0249    2.9473   57.5762 H       1  <0>         0.0800
     37 H37        -6.3296    2.4415   57.3811 H       1  <0>         0.0700
     38 H38        -6.6708    0.3761   58.6358 H       1  <0>         0.1200
     39 H39        -6.7274   -0.6715   60.8635 H       1  <0>         0.1200
     40 H40        -7.1520    0.7049   62.8607 H       1  <0>         0.1200
     41 H41        -7.5191    3.1287   62.6302 H       1  <0>         0.1200
     42 H42        -7.4579    4.1769   60.4029 H       1  <0>         0.1200
     43 H43        -6.5254    0.8222   54.1896 H       1  <0>         0.4100
     44 H44        -8.1506   -0.9893   52.4095 H       1  <0>         0.1300
     45 H45       -10.3030   -2.1394   52.7283 H       1  <0>         0.1300
     46 H46       -11.9052   -1.3146   54.4046 H       1  <0>         0.1200
     47 H47       -11.3603    0.6617   55.7664 H       1  <0>         0.1300
     48 H48        -9.2073    1.8143   55.4606 H       1  <0>         0.1400
@<TRIPOS>BOND
     1     1     2    1
     2     1    29    1
     3     1    30    1
     4     1    31    1
     5     2     3    1
     6     2     4    1
     7     2    20    1
     8     4     5   am
     9     4    32    1
    10     5     6    2
    11     5     7   am
    12     7     8    1
    13     7    33    1
    14     8     9    1
    15     8    11    1
    16     8    10    1
    17    10    11    1
    18    10    34    1
    19    10    35    1
    20    11    12    1
    21    11    13    1
    22    13    14    1
    23    13    36    1
    24    13    37    1
    25    14    19   ar
    26    14    15   ar
    27    15    16   ar
    28    15    38    1
    29    16    17   ar
    30    16    39    1
    31    17    18   ar
    32    17    40    1
    33    18    19   ar
    34    18    41    1
    35    19    42    1
    36    20    21    2
    37    20    22   am
    38    22    23    1
    39    22    43    1
    40    23    28   ar
    41    23    24   ar
    42    24    25   ar
    43    24    44    1
    44    25    26   ar
    45    25    45    1
    46    26    27   ar
    47    26    46    1
    48    27    28   ar
    49    27    47    1
    50    28    48    1
@<TRIPOS>SUBSTRUCTURE
     1 <0>         1 TEMP              0 ****  ****    0 ROOT


##########                                Name:    ZINC000373864439
##########                DOCK_Rotatable_Bonds:                   7
##########                         Heavy_Atoms:                  23
##########                    Molecular_Weight:              344.45
##########                DOCK_Rotatable_Bonds:                   7
##########                       Formal_Charge:          -0.0300001
##########                     HBond_Acceptors:                   7
##########                        HBond_Donors:                   1
##########                         Heavy_Atoms:                  23
##########                          Grid_Score:          -26.065372
##########                     Grid_vdw_energy:          -23.777929
##########                      Grid_es_energy:           -2.287442
##########           Internal_energy_repulsive:           23.086744

@<TRIPOS>MOLECULE
ZINC000373864439
 48 49 1 0 0
SMALL
USER_CHARGES


@<TRIPOS>ATOM
      1 C1         -8.6064    2.9917   66.3788 C.3     1  ZINC000373864439   -0.1500
      2 C2         -7.5464    1.9794   66.8177 C.3     1  ZINC000373864439   -0.6300
      3 S3         -8.0378    0.3179   66.2806 S.o2    1  ZINC000373864439    2.6100
      4 O4         -6.9851   -0.6101   66.5041 O.2     1  ZINC000373864439   -0.9500
      5 O5         -9.3665    0.0323   66.6956 O.2     1  ZINC000373864439   -0.9600
      6 N6         -8.1401    0.4301   64.6316 N.am    1  ZINC000373864439   -1.1200
      7 C7         -6.9604    0.8055   63.8484 C.3     1  ZINC000373864439    0.1100
      8 C8         -7.3929    1.6482   62.6469 C.3     1  ZINC000373864439    0.0500
      9 N9         -8.4854    0.9675   61.9391 N.3     1  ZINC000373864439   -0.5300
     10 C10        -7.9716    0.1803   60.8109 C.3     1  ZINC000373864439    0.0400
     11 C11        -9.1131   -0.6272   60.1887 C.3     1  ZINC000373864439   -0.1300
     12 C12       -10.2078    0.3306   59.7106 C.3     1  ZINC000373864439    0.1800
     13 F13        -9.6922    1.1719   58.7187 F       1  ZINC000373864439   -0.2100
     14 C14       -11.3606   -0.4617   59.1497 C.ar    1  ZINC000373864439   -0.1500
     15 C15       -12.5764   -0.4710   59.8048 C.ar    1  ZINC000373864439   -0.0700
     16 C16       -13.6345   -1.1982   59.2909 C.ar    1  ZINC000373864439   -0.1600
     17 C17       -13.4784   -1.9170   58.1204 C.ar    1  ZINC000373864439   -0.0700
     18 C18       -12.2642   -1.9105   57.4610 C.ar    1  ZINC000373864439   -0.2100
     19 C19       -11.2030   -1.1776   57.9716 C.ar    1  ZINC000373864439    0.1400
     20 O20       -10.0077   -1.1696   57.3250 O.3     1  ZINC000373864439   -0.3100
     21 C21        -9.8808   -2.0227   56.1857 C.3     1  ZINC000373864439    0.0200
     22 C22       -10.6916    1.1723   60.8946 C.3     1  ZINC000373864439   -0.1300
     23 C23        -9.5044    1.9276   61.4962 C.3     1  ZINC000373864439    0.0600
     24 H24        -9.5647    2.7327   66.8292 H       1  ZINC000373864439    0.0700
     25 H25        -8.3111    3.9900   66.7014 H       1  ZINC000373864439    0.0800
     26 H26        -8.6987    2.9733   65.2928 H       1  ZINC000373864439    0.0700
     27 H27        -6.5882    2.2382   66.3672 H       1  ZINC000373864439    0.1300
     28 H28        -7.4541    1.9977   67.9037 H       1  ZINC000373864439    0.1300
     29 H29        -8.9812    0.2473   64.1843 H       1  ZINC000373864439    0.4200
     30 H30        -6.2793    1.3846   64.4721 H       1  ZINC000373864439    0.0700
     31 H31        -6.4554   -0.0947   63.4978 H       1  ZINC000373864439    0.0900
     32 H32        -7.7356    2.6238   62.9918 H       1  ZINC000373864439    0.0900
     33 H33        -6.5475    1.7782   61.9710 H       1  ZINC000373864439    0.0400
     34 H34        -7.5509    0.8510   60.0617 H       1  ZINC000373864439    0.0400
     35 H35        -7.1969   -0.4997   61.1653 H       1  ZINC000373864439    0.0900
     36 H36        -8.7346   -1.1993   59.3417 H       1  ZINC000373864439    0.0800
     37 H37        -9.5252   -1.3081   60.9335 H       1  ZINC000373864439    0.1000
     38 H38       -12.7009    0.0896   60.7195 H       1  ZINC000373864439    0.1300
     39 H39       -14.5842   -1.2049   59.8050 H       1  ZINC000373864439    0.1300
     40 H40       -14.3061   -2.4844   57.7212 H       1  ZINC000373864439    0.1300
     41 H41       -12.1427   -2.4725   56.5468 H       1  ZINC000373864439    0.1300
     42 H42        -8.8806   -1.9203   55.7647 H       1  ZINC000373864439    0.1000
     43 H43       -10.0439   -3.0576   56.4868 H       1  ZINC000373864439    0.0600
     44 H44       -10.6209   -1.7413   55.4367 H       1  ZINC000373864439    0.0600
     45 H45       -11.4410    1.8859   60.5518 H       1  ZINC000373864439    0.0800
     46 H46       -11.1286    0.5197   61.6504 H       1  ZINC000373864439    0.1000
     47 H47        -9.8430    2.5168   62.3485 H       1  ZINC000373864439    0.0800
     48 H48        -9.0766    2.5902   60.7440 H       1  ZINC000373864439    0.0400
@<TRIPOS>BOND
     1     1     2    1
     2     1    24    1
     3     1    25    1
     4     1    26    1
     5     2     3    1
     6     2    27    1
     7     2    28    1
     8     3     4    2
     9     3     5    2
    10     3     6   am
    11     6     7    1
    12     6    29    1
    13     7     8    1
    14     7    30    1
    15     7    31    1
    16     8     9    1
    17     8    32    1
    18     8    33    1
    19     9    23    1
    20     9    10    1
    21    10    11    1
    22    10    34    1
    23    10    35    1
    24    11    12    1
    25    11    36    1
    26    11    37    1
    27    12    13    1
    28    12    14    1
    29    12    22    1
    30    14    19   ar
    31    14    15   ar
    32    15    16   ar
    33    15    38    1
    34    16    17   ar
    35    16    39    1
    36    17    18   ar
    37    17    40    1
    38    18    19   ar
    39    18    41    1
    40    19    20    1
    41    20    21    1
    42    21    42    1
    43    21    43    1
    44    21    44    1
    45    22    23    1
    46    22    45    1
    47    22    46    1
    48    23    47    1
    49    23    48    1
@<TRIPOS>SUBSTRUCTURE
     1 ZINC000373864439        1 TEMP              0 ****  ****    0 ROOT


##########                                Name:    ZINC001013196242
##########                DOCK_Rotatable_Bonds:                   5
##########                         Heavy_Atoms:                  24
##########                    Molecular_Weight:              349.86
##########                DOCK_Rotatable_Bonds:                   5
##########                       Formal_Charge:        -3.05474e-07
##########                     HBond_Acceptors:                   6
##########                        HBond_Donors:                   1
##########                         Heavy_Atoms:                  24
##########                          Grid_Score:          -26.053558
##########                     Grid_vdw_energy:          -25.191856
##########                      Grid_es_energy:           -0.861703
##########           Internal_energy_repulsive:           14.247931

@<TRIPOS>MOLECULE
ZINC001013196242
 48 51 1 0 0
SMALL
USER_CHARGES


@<TRIPOS>ATOM
      1 C1        -10.0187    1.5318   56.0997 C.3     1  ZINC001013196242   -0.1600
      2 C2        -10.3871    0.8387   57.4130 C.3     1  ZINC001013196242    0.1400
      3 H3        -11.4710    0.8030   57.5218 H       1  ZINC001013196242    0.0800
      4 C4         -9.7652    1.6017   58.6016 C.3     1  ZINC001013196242   -0.1400
      5 C5         -9.3292    0.4599   59.5575 C.3     1  ZINC001013196242    0.1300
      6 H6        -10.1674    0.1165   60.1637 H       1  ZINC001013196242    0.1100
      7 N7         -8.2107    0.8823   60.4042 N.am    1  ZINC001013196242   -0.7200
      8 C8         -8.4501    1.4730   61.5917 C.2     1  ZINC001013196242    0.5400
      9 O9         -9.5914    1.6533   61.9601 O.2     1  ZINC001013196242   -0.5200
     10 C10        -7.2996    1.9091   62.4618 C.3     1  ZINC001013196242   -0.1400
     11 C11        -7.7400    2.5391   63.7950 C.3     1  ZINC001013196242   -0.0800
     12 C12        -7.7024    1.1233   64.3804 C.3     1  ZINC001013196242   -0.1600
     13 C13        -7.7142    0.6992   65.8447 C.3     1  ZINC001013196242   -0.1700
     14 C14        -8.8577    0.2843   64.9148 C.3     1  ZINC001013196242   -0.1400
     15 C15        -6.6863    0.7663   63.2901 C.3     1  ZINC001013196242   -0.0800
     16 C16        -8.8850   -0.6334   58.5539 C.3     1  ZINC001013196242    0.0800
     17 N17        -9.8378   -0.5249   57.4299 N.am    1  ZINC001013196242   -0.6000
     18 C18       -10.1482   -1.5112   56.5655 C.2     1  ZINC001013196242    0.6100
     19 O19        -9.6275   -2.6054   56.6782 O.2     1  ZINC001013196242   -0.5400
     20 C20       -11.1136   -1.2658   55.4889 C.2     1  ZINC001013196242   -0.0400
     21 C21       -12.4631   -1.0283   55.6430 C.2     1  ZINC001013196242   -0.1400
     22 C22       -12.9977   -0.8481   54.3629 C.2     1  ZINC001013196242   -0.1200
     23 Cl23      -14.6601   -0.5186   53.9866 Cl      1  ZINC001013196242   -0.0400
     24 C24       -11.9874   -0.9760   53.4689 C.2     1  ZINC001013196242    0.0400
     25 N25       -10.8362   -1.2250   54.1413 N.pl3   1  ZINC001013196242   -0.4000
     26 C26        -9.5181   -1.4254   53.5339 C.3     1  ZINC001013196242    0.0700
     27 H27       -10.4564    0.9845   55.2648 H       1  ZINC001013196242    0.0700
     28 H28       -10.4029    2.5519   56.1069 H       1  ZINC001013196242    0.0700
     29 H29        -8.9342    1.5527   55.9917 H       1  ZINC001013196242    0.0600
     30 H30        -8.9025    2.1836   58.2773 H       1  ZINC001013196242    0.0900
     31 H31       -10.5066    2.2423   59.0790 H       1  ZINC001013196242    0.0900
     32 H32        -7.2979    0.7369   60.1100 H       1  ZINC001013196242    0.4000
     33 H33        -6.5610    2.5009   61.9211 H       1  ZINC001013196242    0.1000
     34 H34        -6.9983    3.2108   64.2272 H       1  ZINC001013196242    0.1000
     35 H35        -8.7394    2.9731   63.7643 H       1  ZINC001013196242    0.0700
     36 H36        -7.0088   -0.0732   66.1510 H       1  ZINC001013196242    0.1000
     37 H37        -7.9242    1.4668   66.5895 H       1  ZINC001013196242    0.0900
     38 H38        -9.8198    0.7791   65.0480 H       1  ZINC001013196242    0.0900
     39 H39        -8.9044   -0.7610   64.6094 H       1  ZINC001013196242    0.1000
     40 H40        -6.8408   -0.2210   62.8547 H       1  ZINC001013196242    0.0800
     41 H41        -5.6512    0.9445   63.5818 H       1  ZINC001013196242    0.0900
     42 H42        -7.8683   -0.4427   58.2107 H       1  ZINC001013196242    0.0800
     43 H43        -8.9527   -1.6197   59.0130 H       1  ZINC001013196242    0.1000
     44 H44       -13.0053   -0.9893   56.5762 H       1  ZINC001013196242    0.1600
     45 H45       -12.0826   -0.8898   52.3966 H       1  ZINC001013196242    0.1800
     46 H46        -8.9698   -0.4833   53.5366 H       1  ZINC001013196242    0.0800
     47 H47        -8.9640   -2.1698   54.1055 H       1  ZINC001013196242    0.1000
     48 H48        -9.6399   -1.7718   52.5077 H       1  ZINC001013196242    0.0900
@<TRIPOS>BOND
     1     1     2    1
     2     1    27    1
     3     1    28    1
     4     1    29    1
     5     2     3    1
     6     2    17    1
     7     2     4    1
     8     4     5    1
     9     4    30    1
    10     4    31    1
    11     5     6    1
    12     5     7    1
    13     5    16    1
    14     7     8   am
    15     7    32    1
    16     8     9    2
    17     8    10    1
    18    10    15    1
    19    10    11    1
    20    10    33    1
    21    11    12    1
    22    11    34    1
    23    11    35    1
    24    12    14    1
    25    12    13    1
    26    12    15    1
    27    13    14    1
    28    13    36    1
    29    13    37    1
    30    14    38    1
    31    14    39    1
    32    15    40    1
    33    15    41    1
    34    16    17    1
    35    16    42    1
    36    16    43    1
    37    17    18   am
    38    18    19    2
    39    18    20    1
    40    20    25    1
    41    20    21    2
    42    21    22    1
    43    21    44    1
    44    22    23    1
    45    22    24    2
    46    24    25    1
    47    24    45    1
    48    25    26    1
    49    26    46    1
    50    26    47    1
    51    26    48    1
@<TRIPOS>SUBSTRUCTURE
     1 ZINC001013196242        1 TEMP              0 ****  ****    0 ROOT


##########                                Name:    ZINC001011676549
##########                DOCK_Rotatable_Bonds:                   6
##########                         Heavy_Atoms:                  24
##########                    Molecular_Weight:             330.387
##########                DOCK_Rotatable_Bonds:                   6
##########                       Formal_Charge:        -1.49012e-07
##########                     HBond_Acceptors:                   7
##########                        HBond_Donors:                   1
##########                         Heavy_Atoms:                  24
##########                          Grid_Score:          -26.042456
##########                     Grid_vdw_energy:          -25.496416
##########                      Grid_es_energy:           -0.546040
##########           Internal_energy_repulsive:           12.332026

@<TRIPOS>MOLECULE
ZINC001011676549
 46 48 1 0 0
SMALL
USER_CHARGES


@<TRIPOS>ATOM
      1 C1        -10.1968   -2.1497   57.7265 C.3     1  ZINC001011676549   -0.1700
      2 C2        -11.2420   -2.1848   58.8433 C.3     1  ZINC001011676549    0.1300
      3 H3        -11.1879   -3.1367   59.3715 H       1  ZINC001011676549    0.0900
      4 C4        -10.9963   -1.0230   59.8288 C.3     1  ZINC001011676549    0.1400
      5 H5        -11.2289   -1.3272   60.8493 H       1  ZINC001011676549    0.1100
      6 N6         -9.6141   -0.5467   59.7343 N.am    1  ZINC001011676549   -0.7200
      7 C7         -8.9838   -0.0851   60.8327 C.2     1  ZINC001011676549    0.5200
      8 O8         -9.5615   -0.0627   61.8988 O.2     1  ZINC001011676549   -0.5300
      9 C9         -7.5614    0.4032   60.7358 C.3     1  ZINC001011676549   -0.0900
     10 C10        -7.2066    1.1675   61.9852 C.ar    1  ZINC001011676549   -0.1800
     11 C11        -7.5185    2.5125   62.1070 C.ar    1  ZINC001011676549    0.1600
     12 N12        -7.1913    3.1509   63.2190 N.ar    1  ZINC001011676549   -0.5200
     13 C13        -6.5769    2.5237   64.2019 C.ar    1  ZINC001011676549    0.3000
     14 N14        -6.2647    1.2459   64.1213 N.ar    1  ZINC001011676549   -0.5200
     15 C15        -6.5656    0.5412   63.0423 C.ar    1  ZINC001011676549    0.1600
     16 C16       -11.9901    0.0636   59.3398 C.3     1  ZINC001011676549   -0.1400
     17 C17       -13.1919   -0.7987   58.8796 C.3     1  ZINC001011676549    0.1000
     18 N18       -12.5861   -2.0034   58.2760 N.am    1  ZINC001011676549   -0.6100
     19 C19       -13.1684   -2.7991   57.3571 C.2     1  ZINC001011676549    0.5800
     20 O20       -12.5733   -3.7690   56.9279 O.2     1  ZINC001011676549   -0.5300
     21 C21       -14.5238   -2.4943   56.8732 C.2     1  ZINC001011676549   -0.1400
     22 C22       -15.5545   -3.0882   57.4472 C.2     1  ZINC001011676549   -0.1500
     23 C23       -16.9727   -2.8449   57.0140 C.3     1  ZINC001011676549    0.0900
     24 O24       -17.0440   -1.6692   56.2049 O.3     1  ZINC001011676549   -0.3800
     25 C25       -16.0879   -1.6622   55.1380 C.3     1  ZINC001011676549    0.0600
     26 C26       -14.6888   -1.5124   55.7458 C.3     1  ZINC001011676549   -0.1100
     27 H27       -10.2648   -1.2005   57.1948 H       1  ZINC001011676549    0.0600
     28 H28        -9.2010   -2.2541   58.1573 H       1  ZINC001011676549    0.0700
     29 H29       -10.3798   -2.9692   57.0316 H       1  ZINC001011676549    0.0800
     30 H30        -9.1526   -0.5635   58.8814 H       1  ZINC001011676549    0.4100
     31 H31        -6.8911   -0.4496   60.6289 H       1  ZINC001011676549    0.1100
     32 H32        -7.4597    1.0564   59.8692 H       1  ZINC001011676549    0.1100
     33 H33        -8.0216    3.0325   61.3051 H       1  ZINC001011676549    0.1700
     34 H34        -6.3223    3.0716   65.0972 H       1  ZINC001011676549    0.2000
     35 H35        -6.3072   -0.5058   62.9829 H       1  ZINC001011676549    0.1700
     36 H36       -12.2754    0.7277   60.1556 H       1  ZINC001011676549    0.0900
     37 H37       -11.5725    0.6282   58.5063 H       1  ZINC001011676549    0.0800
     38 H38       -13.8103   -1.0743   59.7339 H       1  ZINC001011676549    0.0800
     39 H39       -13.7840   -0.2601   58.1397 H       1  ZINC001011676549    0.0800
     40 H40       -15.3708   -3.7758   58.2595 H       1  ZINC001011676549    0.1200
     41 H41       -17.3271   -3.7008   56.4398 H       1  ZINC001011676549    0.0700
     42 H42       -17.6026   -2.7166   57.8943 H       1  ZINC001011676549    0.1100
     43 H43       -16.1518   -2.5980   54.5827 H       1  ZINC001011676549    0.0600
     44 H44       -16.2885   -0.8231   54.4718 H       1  ZINC001011676549    0.1000
     45 H45       -14.5623   -0.4964   56.1196 H       1  ZINC001011676549    0.0900
     46 H46       -13.9377   -1.7140   54.9820 H       1  ZINC001011676549    0.0900
@<TRIPOS>BOND
     1     1     2    1
     2     1    27    1
     3     1    28    1
     4     1    29    1
     5     2     3    1
     6     2    18    1
     7     2     4    1
     8     4     5    1
     9     4     6    1
    10     4    16    1
    11     6     7   am
    12     6    30    1
    13     7     8    2
    14     7     9    1
    15     9    10    1
    16     9    31    1
    17     9    32    1
    18    10    15   ar
    19    10    11   ar
    20    11    12   ar
    21    11    33    1
    22    12    13   ar
    23    13    14   ar
    24    13    34    1
    25    14    15   ar
    26    15    35    1
    27    16    17    1
    28    16    36    1
    29    16    37    1
    30    17    18    1
    31    17    38    1
    32    17    39    1
    33    18    19   am
    34    19    20    2
    35    19    21    1
    36    21    26    1
    37    21    22    2
    38    22    23    1
    39    22    40    1
    40    23    24    1
    41    23    41    1
    42    23    42    1
    43    24    25    1
    44    25    26    1
    45    25    43    1
    46    25    44    1
    47    26    45    1
    48    26    46    1
@<TRIPOS>SUBSTRUCTURE
     1 ZINC001011676549        1 TEMP              0 ****  ****    0 ROOT


##########                                Name:    ZINC000647468483
##########                DOCK_Rotatable_Bonds:                   5
##########                         Heavy_Atoms:                  24
##########                    Molecular_Weight:             341.373
##########                DOCK_Rotatable_Bonds:                   5
##########                       Formal_Charge:           0.0300004
##########                     HBond_Acceptors:                   6
##########                        HBond_Donors:                   2
##########                         Heavy_Atoms:                  24
##########                          Grid_Score:          -26.022312
##########                     Grid_vdw_energy:          -24.796799
##########                      Grid_es_energy:           -1.225514
##########           Internal_energy_repulsive:           20.246855

@<TRIPOS>MOLECULE
ZINC000647468483
 46 48 1 0 0
SMALL
USER_CHARGES


@<TRIPOS>ATOM
      1 O1         -7.3057    0.5929   61.0140 O.co2   1  ZINC000647468483   -0.6800
      2 C2         -7.0256    0.6230   59.8278 C.2     1  ZINC000647468483    0.5000
      3 O3         -6.7105   -0.4032   59.2496 O.co2   1  ZINC000647468483   -0.6900
      4 C4         -7.0751    1.9275   59.0747 C.3     1  ZINC000647468483   -0.1500
      5 H5         -6.9182    2.7681   59.7506 H       1  ZINC000647468483    0.0800
      6 C6         -8.4189    2.0742   58.3186 C.3     1  ZINC000647468483   -0.1100
      7 C7         -8.1034    3.0592   57.1741 C.3     1  ZINC000647468483   -0.1400
      8 C8         -6.5873    2.9730   56.9254 C.3     1  ZINC000647468483    0.0100
      9 H9         -6.1247    3.9447   57.0983 H       1  ZINC000647468483    0.1400
     10 N10        -6.3276    2.5304   55.5490 N.4     1  ZINC000647468483   -0.5000
     11 H11        -5.4249    2.0815   55.5047 H       1  ZINC000647468483    0.4200
     12 H12        -7.0423    1.8771   55.2652 H       1  ZINC000647468483    0.4300
     13 C13        -6.3413    3.6922   54.6502 C.3     1  ZINC000647468483    0.0200
     14 H14        -7.1907    4.3342   54.8832 H       1  ZINC000647468483    0.1500
     15 C15        -5.0288    4.4829   54.7906 C.3     1  ZINC000647468483   -0.1400
     16 C16        -4.3543    4.4675   53.4033 C.3     1  ZINC000647468483   -0.1300
     17 C17        -4.9441    3.2153   52.7081 C.3     1  ZINC000647468483   -0.1300
     18 C18        -6.4199    3.2238   53.1824 C.3     1  ZINC000647468483   -0.0600
     19 H19        -7.0073    3.9243   52.5887 H       1  ZINC000647468483    0.1300
     20 C20        -7.0091    1.8393   53.0979 C.ar    1  ZINC000647468483   -0.1200
     21 C21        -6.3176    0.8323   52.4513 C.ar    1  ZINC000647468483   -0.0700
     22 C22        -6.8582   -0.4378   52.3737 C.ar    1  ZINC000647468483   -0.1000
     23 C23        -8.0899   -0.7006   52.9430 C.ar    1  ZINC000647468483   -0.0600
     24 C24        -8.7812    0.3065   53.5905 C.ar    1  ZINC000647468483   -0.1600
     25 C25       -10.1244    0.0200   54.2109 C.3     1  ZINC000647468483    0.5000
     26 F26       -10.3842   -1.3531   54.1470 F       1  ZINC000647468483   -0.1700
     27 F27       -10.1180    0.4318   55.5479 F       1  ZINC000647468483   -0.1700
     28 F28       -11.1180    0.7156   53.5135 F       1  ZINC000647468483   -0.1700
     29 C29        -8.2388    1.5752   53.6718 C.ar    1  ZINC000647468483   -0.1100
     30 C30        -6.0310    1.9407   57.9307 C.3     1  ZINC000647468483   -0.1200
     31 H31        -8.7378    1.1124   57.9172 H       1  ZINC000647468483    0.0800
     32 H32        -9.1838    2.4866   58.9768 H       1  ZINC000647468483    0.0800
     33 H33        -8.6464    2.7718   56.2738 H       1  ZINC000647468483    0.0700
     34 H34        -8.3765    4.0728   57.4677 H       1  ZINC000647468483    0.1000
     35 H35        -5.2413    5.5089   55.0911 H       1  ZINC000647468483    0.1000
     36 H36        -4.3815    4.0045   55.5258 H       1  ZINC000647468483    0.0900
     37 H37        -4.6084    5.3688   52.8455 H       1  ZINC000647468483    0.0800
     38 H38        -3.2732    4.3731   53.5057 H       1  ZINC000647468483    0.0900
     39 H39        -4.8864    3.3121   51.6240 H       1  ZINC000647468483    0.0900
     40 H40        -4.4356    2.3115   53.0438 H       1  ZINC000647468483    0.0800
     41 H41        -5.3551    1.0377   52.0065 H       1  ZINC000647468483    0.1400
     42 H42        -6.3181   -1.2245   51.8679 H       1  ZINC000647468483    0.1500
     43 H43        -8.5125   -1.6926   52.8817 H       1  ZINC000647468483    0.1500
     44 H44        -8.7788    2.3619   54.1776 H       1  ZINC000647468483    0.1400
     45 H45        -5.0558    2.2563   58.3013 H       1  ZINC000647468483    0.0900
     46 H46        -5.9640    0.9558   57.4684 H       1  ZINC000647468483    0.1000
@<TRIPOS>BOND
     1     1     2   ar
     2     2     3   ar
     3     2     4    1
     4     4     5    1
     5     4    30    1
     6     4     6    1
     7     6     7    1
     8     6    31    1
     9     6    32    1
    10     7     8    1
    11     7    33    1
    12     7    34    1
    13     8     9    1
    14     8    10    1
    15     8    30    1
    16    10    11    1
    17    10    12    1
    18    10    13    1
    19    13    14    1
    20    13    18    1
    21    13    15    1
    22    15    16    1
    23    15    35    1
    24    15    36    1
    25    16    17    1
    26    16    37    1
    27    16    38    1
    28    17    18    1
    29    17    39    1
    30    17    40    1
    31    18    19    1
    32    18    20    1
    33    20    29   ar
    34    20    21   ar
    35    21    22   ar
    36    21    41    1
    37    22    23   ar
    38    22    42    1
    39    23    24   ar
    40    23    43    1
    41    24    25    1
    42    24    29   ar
    43    25    26    1
    44    25    27    1
    45    25    28    1
    46    29    44    1
    47    30    45    1
    48    30    46    1
@<TRIPOS>SUBSTRUCTURE
     1 ZINC000647468483        1 TEMP              0 ****  ****    0 ROOT


##########                                Name:    ZINC001039666729
##########                DOCK_Rotatable_Bonds:                   3
##########                         Heavy_Atoms:                  25
##########                    Molecular_Weight:             344.376
##########                DOCK_Rotatable_Bonds:                   3
##########                       Formal_Charge:          -0.0199998
##########                     HBond_Acceptors:                  10
##########                        HBond_Donors:                   2
##########                         Heavy_Atoms:                  25
##########                          Grid_Score:          -25.999624
##########                     Grid_vdw_energy:          -26.324095
##########                      Grid_es_energy:            0.324470
##########           Internal_energy_repulsive:           29.938461

@<TRIPOS>MOLECULE
ZINC001039666729
 45 47 1 0 0
SMALL
USER_CHARGES


@<TRIPOS>ATOM
      1 C1        -14.7633   -3.3545   57.8238 C.3     1  ZINC001039666729   -0.1100
      2 C2        -13.9826   -2.0668   57.7631 C.ar    1  ZINC001039666729    0.2200
      3 C3        -14.6408   -0.8473   57.7577 C.ar    1  ZINC001039666729   -0.3000
      4 C4        -13.8851    0.3135   57.7010 C.ar    1  ZINC001039666729    0.1900
      5 N5        -12.5663    0.2231   57.6538 N.ar    1  ZINC001039666729   -0.5800
      6 C6        -11.9678   -0.9592   57.6605 C.ar    1  ZINC001039666729    0.6000
      7 N7        -10.5859   -1.0171   57.6106 N.pl3   1  ZINC001039666729   -0.5900
      8 C8         -9.7968   -2.2596   57.8720 C.3     1  ZINC001039666729    0.1200
      9 C9         -9.8179   -3.1053   56.5967 C.3     1  ZINC001039666729    0.0900
     10 N10        -9.1481   -2.3397   55.5159 N.am    1  ZINC001039666729   -0.7400
     11 C11       -10.0040   -1.6754   54.6774 C.2     1  ZINC001039666729    0.5200
     12 O12       -11.2041   -1.7349   54.8419 O.2     1  ZINC001039666729   -0.5200
     13 C13        -9.4204   -0.8685   53.5463 C.3     1  ZINC001039666729   -0.1500
     14 C14        -9.8166    0.6003   53.7099 C.3     1  ZINC001039666729    0.1100
     15 N15        -9.3590    1.0627   55.0458 N.am    1  ZINC001039666729   -0.6100
     16 C16        -8.1302    1.5743   55.2571 C.2     1  ZINC001039666729    0.6100
     17 O17        -7.8059    1.9366   56.3712 O.2     1  ZINC001039666729   -0.5200
     18 C18        -7.1767    1.6947   54.1341 C.2     1  ZINC001039666729   -0.0400
     19 N19        -6.9302    0.7969   53.1923 N.2     1  ZINC001039666729   -0.2500
     20 N20        -6.0388    1.2730   52.3972 N.pl3   1  ZINC001039666729   -0.2300
     21 N21        -5.6746    2.4503   52.7619 N.2     1  ZINC001039666729   -0.2800
     22 C22        -6.3432    2.7916   53.8370 C.2     1  ZINC001039666729    0.0400
     23 C23       -10.3646    0.9166   56.1300 C.3     1  ZINC001039666729    0.1100
     24 C24        -9.7171    0.1545   57.2833 C.3     1  ZINC001039666729    0.1300
     25 N25       -12.6605   -2.0868   57.7195 N.ar    1  ZINC001039666729   -0.5700
     26 H26       -14.9173   -3.6372   58.8652 H       1  ZINC001039666729    0.0800
     27 H27       -15.7293   -3.2170   57.3380 H       1  ZINC001039666729    0.0800
     28 H28       -14.2078   -4.1405   57.3122 H       1  ZINC001039666729    0.0800
     29 H29       -15.7192   -0.8021   57.7966 H       1  ZINC001039666729    0.1400
     30 H30       -14.3671    1.2798   57.6949 H       1  ZINC001039666729    0.1600
     31 H31        -8.7692   -1.9980   58.1242 H       1  ZINC001039666729    0.0800
     32 H32       -10.2483   -2.8177   58.6923 H       1  ZINC001039666729    0.0900
     33 H33        -9.2858   -4.0409   56.7679 H       1  ZINC001039666729    0.0800
     34 H34       -10.8491   -3.3156   56.3128 H       1  ZINC001039666729    0.1000
     35 H35        -8.1840   -2.3122   55.4118 H       1  ZINC001039666729    0.4100
     36 H36        -8.3339   -0.9554   53.5608 H       1  ZINC001039666729    0.0800
     37 H37        -9.8023   -1.2443   52.5971 H       1  ZINC001039666729    0.1100
     38 H38        -9.3415    1.1976   52.9318 H       1  ZINC001039666729    0.1100
     39 H39       -10.8999    0.6984   53.6386 H       1  ZINC001039666729    0.0900
     40 H40        -5.6869    0.8048   51.6240 H       1  ZINC001039666729    0.4700
     41 H41        -6.2659    3.7186   54.3858 H       1  ZINC001039666729    0.2100
     42 H42       -10.6834    1.9019   56.4702 H       1  ZINC001039666729    0.0800
     43 H43       -11.2251    0.3592   55.7600 H       1  ZINC001039666729    0.1200
     44 H44        -9.6365    0.8036   58.1551 H       1  ZINC001039666729    0.0700
     45 H45        -8.7266   -0.1910   56.9870 H       1  ZINC001039666729    0.0900
@<TRIPOS>BOND
     1     1     2    1
     2     1    26    1
     3     1    27    1
     4     1    28    1
     5     2    25   ar
     6     2     3   ar
     7     3     4   ar
     8     3    29    1
     9     4     5   ar
    10     4    30    1
    11     5     6   ar
    12     6     7    1
    13     6    25   ar
    14     7    24    1
    15     7     8    1
    16     8     9    1
    17     8    31    1
    18     8    32    1
    19     9    10    1
    20     9    33    1
    21     9    34    1
    22    10    11   am
    23    10    35    1
    24    11    12    2
    25    11    13    1
    26    13    14    1
    27    13    36    1
    28    13    37    1
    29    14    15    1
    30    14    38    1
    31    14    39    1
    32    15    16   am
    33    15    23    1
    34    16    17    2
    35    16    18    1
    36    18    22    1
    37    18    19    2
    38    19    20    1
    39    20    21    1
    40    20    40    1
    41    21    22    2
    42    22    41    1
    43    23    24    1
    44    23    42    1
    45    23    43    1
    46    24    44    1
    47    24    45    1
@<TRIPOS>SUBSTRUCTURE
     1 ZINC001039666729        1 TEMP              0 ****  ****    0 ROOT


##########                                Name:    ZINC000543429378
##########                DOCK_Rotatable_Bonds:                   6
##########                         Heavy_Atoms:                  29
##########                    Molecular_Weight:             406.408
##########                DOCK_Rotatable_Bonds:                   6
##########                       Formal_Charge:           0.0100003
##########                     HBond_Acceptors:                   9
##########                        HBond_Donors:                   1
##########                         Heavy_Atoms:                  29
##########                          Grid_Score:          -25.984571
##########                     Grid_vdw_energy:          -25.802439
##########                      Grid_es_energy:           -0.182132
##########           Internal_energy_repulsive:           28.618153

@<TRIPOS>MOLECULE
ZINC000543429378
 50 53 1 0 0
SMALL
USER_CHARGES


@<TRIPOS>ATOM
      1 O1        -12.0091    0.1733   58.5480 O.2     1  ZINC000543429378   -0.5100
      2 C2        -11.5704   -0.7936   59.1343 C.2     1  ZINC000543429378    0.5200
      3 N3        -12.1674   -1.9940   58.9955 N.am    1  ZINC000543429378   -0.6600
      4 C4        -13.2966   -2.1235   58.1795 C.ar    1  ZINC000543429378    0.1900
      5 C5        -14.4718   -2.6523   58.6974 C.ar    1  ZINC000543429378   -0.1600
      6 C6        -15.5870   -2.7798   57.8917 C.ar    1  ZINC000543429378   -0.0600
      7 C7        -15.5362   -2.3822   56.5694 C.ar    1  ZINC000543429378   -0.2100
      8 C8        -14.3643   -1.8530   56.0464 C.ar    1  ZINC000543429378    0.1300
      9 O9        -14.3158   -1.4625   54.7457 O.3     1  ZINC000543429378   -0.3100
     10 C10       -14.2424   -0.0581   54.4922 C.3     1  ZINC000543429378    0.6000
     11 F11       -14.9832    0.2482   53.3456 F       1  ZINC000543429378   -0.1600
     12 F12       -14.7650    0.6410   55.5855 F       1  ZINC000543429378   -0.1300
     13 F13       -12.9074    0.3115   54.2973 F       1  ZINC000543429378   -0.1600
     14 C14       -13.2454   -1.7184   56.8529 C.ar    1  ZINC000543429378   -0.1300
     15 C15       -10.3542   -0.6541   60.0132 C.3     1  ZINC000543429378    0.0700
     16 H16       -10.3260   -1.4662   60.7396 H       1  ZINC000543429378    0.1200
     17 C17       -10.3868    0.7136   60.7489 C.3     1  ZINC000543429378   -0.1200
     18 C18        -8.9051    1.1197   60.7259 C.3     1  ZINC000543429378   -0.1000
     19 H19        -8.3403    0.5853   61.4898 H       1  ZINC000543429378    0.0900
     20 C20        -8.6413    2.6140   60.7995 C.3     1  ZINC000543429378   -0.1100
     21 C21        -7.1269    2.8190   60.6354 C.3     1  ZINC000543429378   -0.1200
     22 C22        -6.6231    2.2358   59.3185 C.3     1  ZINC000543429378   -0.1100
     23 C23        -7.0079    0.7535   59.1785 C.3     1  ZINC000543429378   -0.0900
     24 C24        -8.5102    0.6475   59.3002 C.3     1  ZINC000543429378    0.0700
     25 H25        -8.9775    1.3180   58.5790 H       1  ZINC000543429378    0.0900
     26 N26        -9.1228   -0.6755   59.1812 N.3     1  ZINC000543429378   -0.4300
     27 C27        -9.4321   -0.9623   57.8629 C.ar    1  ZINC000543429378    0.5000
     28 N28        -9.5010   -2.2274   57.4753 N.ar    1  ZINC000543429378   -0.5300
     29 C29        -9.7947   -2.5358   56.2230 C.ar    1  ZINC000543429378    0.1800
     30 C30       -10.0312   -1.5170   55.3134 C.ar    1  ZINC000543429378   -0.2500
     31 C31        -9.9508   -0.2049   55.7525 C.ar    1  ZINC000543429378    0.1800
     32 N32        -9.6575    0.0347   57.0199 N.ar    1  ZINC000543429378   -0.5300
     33 H33       -11.8142   -2.7680   59.4613 H       1  ZINC000543429378    0.4200
     34 H34       -14.5138   -2.9645   59.7305 H       1  ZINC000543429378    0.1400
     35 H35       -16.4998   -3.1913   58.2961 H       1  ZINC000543429378    0.1400
     36 H36       -16.4092   -2.4837   55.9419 H       1  ZINC000543429378    0.1400
     37 H37       -12.3328   -1.3067   56.4477 H       1  ZINC000543429378    0.1500
     38 H38       -10.9970    1.4345   60.2049 H       1  ZINC000543429378    0.0800
     39 H39       -10.7431    0.5972   61.7725 H       1  ZINC000543429378    0.0900
     40 H40        -9.1738    3.1246   59.9971 H       1  ZINC000543429378    0.0700
     41 H41        -8.9653    3.0007   61.7658 H       1  ZINC000543429378    0.0700
     42 H42        -6.9072    3.8864   60.6595 H       1  ZINC000543429378    0.0600
     43 H43        -6.6098    2.3314   61.4618 H       1  ZINC000543429378    0.0600
     44 H44        -7.0573    2.7967   58.4909 H       1  ZINC000543429378    0.0600
     45 H45        -5.5378    2.3278   59.2797 H       1  ZINC000543429378    0.0700
     46 H46        -6.6873    0.3776   58.2068 H       1  ZINC000543429378    0.0700
     47 H47        -6.5410    0.1726   59.9740 H       1  ZINC000543429378    0.0700
     48 H48        -9.8491   -3.5689   55.9129 H       1  ZINC000543429378    0.1600
     49 H49       -10.2725   -1.7409   54.2848 H       1  ZINC000543429378    0.1400
     50 H50       -10.1291    0.6121   55.0690 H       1  ZINC000543429378    0.1600
@<TRIPOS>BOND
     1     1     2    2
     2     2     3   am
     3     2    15    1
     4     3     4    1
     5     3    33    1
     6     4    14   ar
     7     4     5   ar
     8     5     6   ar
     9     5    34    1
    10     6     7   ar
    11     6    35    1
    12     7     8   ar
    13     7    36    1
    14     8     9    1
    15     8    14   ar
    16     9    10    1
    17    10    11    1
    18    10    12    1
    19    10    13    1
    20    14    37    1
    21    15    16    1
    22    15    26    1
    23    15    17    1
    24    17    18    1
    25    17    38    1
    26    17    39    1
    27    18    19    1
    28    18    24    1
    29    18    20    1
    30    20    21    1
    31    20    40    1
    32    20    41    1
    33    21    22    1
    34    21    42    1
    35    21    43    1
    36    22    23    1
    37    22    44    1
    38    22    45    1
    39    23    24    1
    40    23    46    1
    41    23    47    1
    42    24    25    1
    43    24    26    1
    44    26    27    1
    45    27    32   ar
    46    27    28   ar
    47    28    29   ar
    48    29    30   ar
    49    29    48    1
    50    30    31   ar
    51    30    49    1
    52    31    32   ar
    53    31    50    1
@<TRIPOS>SUBSTRUCTURE
     1 ZINC000543429378        1 TEMP              0 ****  ****    0 ROOT


##########                                Name:    ZINC000966038509
##########                DOCK_Rotatable_Bonds:                   5
##########                         Heavy_Atoms:                  25
##########                    Molecular_Weight:             346.445
##########                DOCK_Rotatable_Bonds:                   5
##########                       Formal_Charge:           0.0299998
##########                     HBond_Acceptors:                   5
##########                        HBond_Donors:                   1
##########                         Heavy_Atoms:                  25
##########                          Grid_Score:          -25.972574
##########                     Grid_vdw_energy:          -26.031466
##########                      Grid_es_energy:            0.058892
##########           Internal_energy_repulsive:           18.666067

@<TRIPOS>MOLECULE
ZINC000966038509
 52 54 1 0 0
SMALL
USER_CHARGES


@<TRIPOS>ATOM
      1 C1         -4.4758    5.0503   54.4330 C.3     1  ZINC000966038509   -0.1200
      2 C2         -4.1653    4.0652   53.3356 C.ar    1  ZINC000966038509   -0.0100
      3 C3         -2.8563    3.7500   53.0408 C.ar    1  ZINC000966038509   -0.1600
      4 C4         -2.5692    2.8442   52.0310 C.ar    1  ZINC000966038509    0.1300
      5 F5         -1.2844    2.5391   51.7458 F       1  ZINC000966038509   -0.1300
      6 C6         -3.5960    2.2500   51.3133 C.ar    1  ZINC000966038509   -0.1600
      7 C7         -4.9086    2.5581   51.5998 C.ar    1  ZINC000966038509   -0.0100
      8 C8         -6.0235    1.9120   50.8184 C.3     1  ZINC000966038509   -0.1200
      9 C9         -5.2035    3.4658   52.6194 C.ar    1  ZINC000966038509   -0.1500
     10 C10        -6.6084    3.7997   52.9309 C.2     1  ZINC000966038509    0.5700
     11 O11        -7.0815    4.8531   52.5507 O.2     1  ZINC000966038509   -0.5200
     12 N12        -7.3657    2.9367   53.6367 N.am    1  ZINC000966038509   -0.7100
     13 C13        -8.7594    3.2672   53.9442 C.3     1  ZINC000966038509    0.1300
     14 H14        -9.0636    4.1814   53.4345 H       1  ZINC000966038509    0.1200
     15 C15        -9.7014    2.0912   53.5843 C.3     1  ZINC000966038509    0.0900
     16 N16        -9.5956    1.1609   54.7232 N.am    1  ZINC000966038509   -0.6200
     17 C17        -9.8468   -0.1626   54.6822 C.2     1  ZINC000966038509    0.5400
     18 O18       -10.1936   -0.6821   53.6426 O.2     1  ZINC000966038509   -0.5300
     19 C19        -9.6968   -0.9969   55.9281 C.3     1  ZINC000966038509   -0.1100
     20 C20       -11.0294   -1.0383   56.7166 C.3     1  ZINC000966038509   -0.1100
     21 C21       -10.8966   -2.3407   57.5443 C.3     1  ZINC000966038509   -0.1200
     22 C22       -10.1909   -3.3256   56.5892 C.3     1  ZINC000966038509   -0.1200
     23 C23        -9.4281   -2.4711   55.5617 C.3     1  ZINC000966038509   -0.1100
     24 C24        -9.1699    1.9160   55.9107 C.3     1  ZINC000966038509    0.1000
     25 C25        -8.9781    3.3853   55.4758 C.3     1  ZINC000966038509   -0.1100
     26 H26        -9.8706    3.9718   55.6941 H       1  ZINC000966038509    0.1000
     27 C27        -7.7516    3.9957   56.1568 C.3     1  ZINC000966038509   -0.1400
     28 H28        -4.5777    4.5195   55.3796 H       1  ZINC000966038509    0.0800
     29 H29        -3.6667    5.7767   54.5089 H       1  ZINC000966038509    0.0800
     30 H30        -5.4078    5.5672   54.2042 H       1  ZINC000966038509    0.0700
     31 H31        -2.0528    4.2097   53.5971 H       1  ZINC000966038509    0.1400
     32 H32        -3.3669    1.5449   50.5279 H       1  ZINC000966038509    0.1400
     33 H33        -6.3240    0.9874   51.3111 H       1  ZINC000966038509    0.0800
     34 H34        -6.8746    2.5913   50.7703 H       1  ZINC000966038509    0.0700
     35 H35        -5.6783    1.6901   49.8086 H       1  ZINC000966038509    0.0800
     36 H36        -6.9879    2.0968   53.9412 H       1  ZINC000966038509    0.4000
     37 H37       -10.7266    2.4454   53.4777 H       1  ZINC000966038509    0.0800
     38 H38        -9.3692    1.6063   52.6664 H       1  ZINC000966038509    0.0800
     39 H39        -8.8935   -0.6066   56.5531 H       1  ZINC000966038509    0.0900
     40 H40       -11.1177   -0.1716   57.3717 H       1  ZINC000966038509    0.0700
     41 H41       -11.8790   -1.0977   56.0363 H       1  ZINC000966038509    0.0700
     42 H42       -10.2881   -2.1682   58.4320 H       1  ZINC000966038509    0.0700
     43 H43       -11.8806   -2.7180   57.8224 H       1  ZINC000966038509    0.0700
     44 H44        -9.4933   -3.9508   57.1463 H       1  ZINC000966038509    0.0700
     45 H45       -10.9287   -3.9481   56.0830 H       1  ZINC000966038509    0.0700
     46 H46        -9.7957   -2.6790   54.5568 H       1  ZINC000966038509    0.0800
     47 H47        -8.3603   -2.6817   55.6202 H       1  ZINC000966038509    0.0700
     48 H48        -9.9366    1.8552   56.6831 H       1  ZINC000966038509    0.0800
     49 H49        -8.2289    1.5151   56.2872 H       1  ZINC000966038509    0.0700
     50 H50        -6.8666    3.4126   55.9018 H       1  ZINC000966038509    0.0600
     51 H51        -7.6204    5.0228   55.8162 H       1  ZINC000966038509    0.0700
     52 H52        -7.8938    3.9866   57.2374 H       1  ZINC000966038509    0.0700
@<TRIPOS>BOND
     1     1     2    1
     2     1    28    1
     3     1    29    1
     4     1    30    1
     5     2     9   ar
     6     2     3   ar
     7     3     4   ar
     8     3    31    1
     9     4     5    1
    10     4     6   ar
    11     6     7   ar
    12     6    32    1
    13     7     8    1
    14     7     9   ar
    15     8    33    1
    16     8    34    1
    17     8    35    1
    18     9    10    1
    19    10    11    2
    20    10    12   am
    21    12    13    1
    22    12    36    1
    23    13    14    1
    24    13    25    1
    25    13    15    1
    26    15    16    1
    27    15    37    1
    28    15    38    1
    29    16    17   am
    30    16    24    1
    31    17    18    2
    32    17    19    1
    33    19    23    1
    34    19    20    1
    35    19    39    1
    36    20    21    1
    37    20    40    1
    38    20    41    1
    39    21    22    1
    40    21    42    1
    41    21    43    1
    42    22    23    1
    43    22    44    1
    44    22    45    1
    45    23    46    1
    46    23    47    1
    47    24    25    1
    48    24    48    1
    49    24    49    1
    50    25    26    1
    51    25    27    1
    52    27    50    1
    53    27    51    1
    54    27    52    1
@<TRIPOS>SUBSTRUCTURE
     1 ZINC000966038509        1 TEMP              0 ****  ****    0 ROOT


##########                                Name:    ZINC000566738344
##########                DOCK_Rotatable_Bonds:                   5
##########                         Heavy_Atoms:                  23
##########                    Molecular_Weight:             352.478
##########                DOCK_Rotatable_Bonds:                   5
##########                       Formal_Charge:           0.0100005
##########                     HBond_Acceptors:                   7
##########                        HBond_Donors:                   0
##########                         Heavy_Atoms:                  23
##########                          Grid_Score:          -25.964182
##########                     Grid_vdw_energy:          -26.069311
##########                      Grid_es_energy:            0.105129
##########           Internal_energy_repulsive:           26.216608

@<TRIPOS>MOLECULE
ZINC000566738344
 43 44 1 0 0
SMALL
USER_CHARGES


@<TRIPOS>ATOM
      1 C1         -3.4290    3.6342   56.4132 C.3     1  ZINC000566738344   -0.1300
      2 C2         -4.8911    3.2734   56.4674 C.ar    1  ZINC000566738344   -0.0100
      3 C3         -5.4959    3.0296   57.6790 C.ar    1  ZINC000566738344   -0.1000
      4 C4         -6.8470    2.6956   57.7299 C.ar    1  ZINC000566738344   -0.0500
      5 S5         -7.6175    2.3835   59.2834 S.3     1  ZINC000566738344   -0.0300
      6 C6         -8.0404    0.6223   59.1827 C.3     1  ZINC000566738344   -0.1200
      7 H7         -7.9915    0.2957   58.1440 H       1  ZINC000566738344    0.1200
      8 C8         -7.0491   -0.1889   60.0195 C.3     1  ZINC000566738344   -0.1300
      9 C9         -9.4357    0.4097   59.7110 C.2     1  ZINC000566738344    0.5200
     10 O10        -9.8397    1.0747   60.6412 O.2     1  ZINC000566738344   -0.5000
     11 N11       -10.2345   -0.5194   59.1497 N.am    1  ZINC000566738344   -0.6000
     12 C12       -11.5915   -0.7248   59.6620 C.3     1  ZINC000566738344    0.0600
     13 C13        -9.7459   -1.3240   58.0271 C.3     1  ZINC000566738344    0.1500
     14 H14        -8.7233   -1.6457   58.2246 H       1  ZINC000566738344    0.1300
     15 C15       -10.6492   -2.5559   57.8417 C.3     1  ZINC000566738344   -0.1300
     16 C16       -10.2870   -3.1681   56.4640 C.3     1  ZINC000566738344   -0.5900
     17 S17       -10.1291   -1.6855   55.3979 S.o2    1  ZINC000566738344    2.4000
     18 O18        -8.9793   -1.8185   54.5737 O.2     1  ZINC000566738344   -0.9300
     19 O19       -11.3897   -1.3904   54.8120 O.2     1  ZINC000566738344   -0.9300
     20 C20        -9.7849   -0.4865   56.7334 C.3     1  ZINC000566738344   -0.6200
     21 C21        -7.5903    2.6083   56.5557 C.ar    1  ZINC000566738344   -0.1400
     22 C22        -6.9913    2.8510   55.3407 C.ar    1  ZINC000566738344   -0.0400
     23 C23        -5.6363    3.1917   55.2867 C.ar    1  ZINC000566738344   -0.0400
     24 C24        -5.0100    3.4450   54.0240 C.1     1  ZINC000566738344    0.2500
     25 N25        -4.5131    3.6459   53.0224 N.1     1  ZINC000566738344   -0.4100
     26 H26        -3.3189    4.7163   56.4843 H       1  ZINC000566738344    0.0800
     27 H27        -2.9069    3.1605   57.2445 H       1  ZINC000566738344    0.0800
     28 H28        -3.0037    3.2868   55.4717 H       1  ZINC000566738344    0.0700
     29 H29        -4.9221    3.0968   58.5915 H       1  ZINC000566738344    0.1400
     30 H30        -7.1605    0.0748   61.0713 H       1  ZINC000566738344    0.0800
     31 H31        -7.2482   -1.2526   59.8886 H       1  ZINC000566738344    0.0800
     32 H32        -6.0326    0.0331   59.6949 H       1  ZINC000566738344    0.0900
     33 H33       -12.2835   -0.0719   59.1300 H       1  ZINC000566738344    0.0700
     34 H34       -11.8835   -1.7640   59.5109 H       1  ZINC000566738344    0.0800
     35 H35       -11.6172   -0.4912   60.7264 H       1  ZINC000566738344    0.0800
     36 H36       -10.4595   -3.2805   58.6336 H       1  ZINC000566738344    0.1100
     37 H37       -11.6969   -2.2556   57.8530 H       1  ZINC000566738344    0.0900
     38 H38        -9.3422   -3.7088   56.5172 H       1  ZINC000566738344    0.1400
     39 H39       -11.0863   -3.8178   56.1072 H       1  ZINC000566738344    0.1400
     40 H40       -10.5786    0.2586   56.7869 H       1  ZINC000566738344    0.1400
     41 H41        -8.8216   -0.0035   56.5693 H       1  ZINC000566738344    0.1500
     42 H42        -8.6380    2.3494   56.5986 H       1  ZINC000566738344    0.1200
     43 H43        -7.5683    2.7827   54.4304 H       1  ZINC000566738344    0.1400
@<TRIPOS>BOND
     1     1     2    1
     2     1    26    1
     3     1    27    1
     4     1    28    1
     5     2    23   ar
     6     2     3   ar
     7     3     4   ar
     8     3    29    1
     9     4     5    1
    10     4    21   ar
    11     5     6    1
    12     6     7    1
    13     6     8    1
    14     6     9    1
    15     8    30    1
    16     8    31    1
    17     8    32    1
    18     9    10    2
    19     9    11   am
    20    11    12    1
    21    11    13    1
    22    12    33    1
    23    12    34    1
    24    12    35    1
    25    13    14    1
    26    13    20    1
    27    13    15    1
    28    15    16    1
    29    15    36    1
    30    15    37    1
    31    16    17    1
    32    16    38    1
    33    16    39    1
    34    17    18    2
    35    17    19    2
    36    17    20    1
    37    20    40    1
    38    20    41    1
    39    21    22   ar
    40    21    42    1
    41    22    23   ar
    42    22    43    1
    43    23    24    1
    44    24    25    3
@<TRIPOS>SUBSTRUCTURE
     1 ZINC000566738344        1 TEMP              0 ****  ****    0 ROOT


##########                                Name:    ZINC001018118384
##########                DOCK_Rotatable_Bonds:                   5
##########                         Heavy_Atoms:                  25
##########                    Molecular_Weight:             347.374
##########                DOCK_Rotatable_Bonds:                   5
##########                       Formal_Charge:           0.0299997
##########                     HBond_Acceptors:                   9
##########                        HBond_Donors:                   2
##########                         Heavy_Atoms:                  25
##########                          Grid_Score:          -25.938423
##########                     Grid_vdw_energy:          -24.853020
##########                      Grid_es_energy:           -1.085404
##########           Internal_energy_repulsive:           97.775543

@<TRIPOS>MOLECULE
ZINC001018118384
 46 48 1 0 0
SMALL
USER_CHARGES


@<TRIPOS>ATOM
      1 C1         -4.0315    4.0545   55.7052 C.3     1  ZINC001018118384   -0.0700
      2 C2         -4.7997    3.4983   56.8764 C.2     1  ZINC001018118384    0.2200
      3 N3         -5.6892    2.5499   56.8153 N.2     1  ZINC001018118384   -0.4600
      4 C4         -6.1673    2.3152   58.0640 C.2     1  ZINC001018118384   -0.0700
      5 C5         -7.1888    1.3197   58.4326 C.2     1  ZINC001018118384    0.6100
      6 O6         -6.8537    0.2538   58.9131 O.2     1  ZINC001018118384   -0.5400
      7 N7         -8.4946    1.5902   58.2374 N.am    1  ZINC001018118384   -0.5900
      8 C8         -8.9146    2.8709   57.6525 C.3     1  ZINC001018118384    0.0700
      9 C9         -9.8160    2.5900   56.4461 C.3     1  ZINC001018118384    0.1300
     10 H10       -10.2119    3.5298   56.0612 H       1  ZINC001018118384    0.1100
     11 N11        -9.0382    1.9219   55.3997 N.am    1  ZINC001018118384   -0.7000
     12 C12        -8.2843    2.6496   54.5520 C.2     1  ZINC001018118384    0.6000
     13 O13        -8.2508    3.8597   54.6548 O.2     1  ZINC001018118384   -0.4900
     14 C14        -7.4961    1.9736   53.4945 C.2     1  ZINC001018118384    0.0300
     15 C15        -6.9049    2.5700   52.4207 C.2     1  ZINC001018118384   -0.2300
     16 C16        -6.2838    1.4932   51.7273 C.2     1  ZINC001018118384    0.4800
     17 O17        -5.6331    1.5579   50.6976 O.2     1  ZINC001018118384   -0.5200
     18 N18        -6.5634    0.3870   52.4456 N.am    1  ZINC001018118384   -0.4500
     19 C19        -6.1179   -0.9646   52.0977 C.3     1  ZINC001018118384    0.1100
     20 O20        -7.2265    0.6615   53.4187 O.3     1  ZINC001018118384    0.0000
     21 C21       -10.9734    1.6869   56.8785 C.3     1  ZINC001018118384   -0.1300
     22 C22       -10.4198    0.3544   57.3886 C.3     1  ZINC001018118384   -0.1300
     23 C23        -9.5249    0.6075   58.5999 C.3     1  ZINC001018118384    0.1400
     24 H24       -10.1242    1.0011   59.4211 H       1  ZINC001018118384    0.0700
     25 C25        -8.8622   -0.7025   59.0308 C.3     1  ZINC001018118384   -0.1400
     26 C26        -5.5291    3.1690   58.9156 C.2     1  ZINC001018118384    0.0400
     27 N27        -4.6711    3.9018   58.1673 N.pl3   1  ZINC001018118384   -0.5600
     28 H28        -3.1124    3.4845   55.5699 H       1  ZINC001018118384    0.0900
     29 H29        -4.6402    3.9816   54.8039 H       1  ZINC001018118384    0.1000
     30 H30        -3.7864    5.0995   55.8948 H       1  ZINC001018118384    0.0800
     31 H31        -9.4663    3.4481   58.3944 H       1  ZINC001018118384    0.0800
     32 H32        -8.0366    3.4307   57.3301 H       1  ZINC001018118384    0.1500
     33 H33        -9.0659    0.9559   55.3168 H       1  ZINC001018118384    0.4100
     34 H34        -6.9076    3.6172   52.1568 H       1  ZINC001018118384    0.1900
     35 H35        -5.1509   -1.1591   52.5615 H       1  ZINC001018118384    0.0800
     36 H36        -6.8463   -1.6912   52.4577 H       1  ZINC001018118384    0.0900
     37 H37        -6.0251   -1.0492   51.0150 H       1  ZINC001018118384    0.1100
     38 H38       -11.5367    2.1745   57.6740 H       1  ZINC001018118384    0.0900
     39 H39       -11.6299    1.5056   56.0275 H       1  ZINC001018118384    0.0800
     40 H40       -11.2457   -0.2971   57.6744 H       1  ZINC001018118384    0.0800
     41 H41        -9.8357   -0.1222   56.6014 H       1  ZINC001018118384    0.0600
     42 H42        -8.2756   -1.1020   58.2035 H       1  ZINC001018118384    0.0700
     43 H43        -8.2086   -0.5160   59.8829 H       1  ZINC001018118384    0.0800
     44 H44        -9.6302   -1.4227   59.3127 H       1  ZINC001018118384    0.0400
     45 H45        -5.6767    3.2430   59.9828 H       1  ZINC001018118384    0.1900
     46 H46        -4.0764    4.5950   58.4934 H       1  ZINC001018118384    0.4300
@<TRIPOS>BOND
     1     1     2    1
     2     1    28    1
     3     1    29    1
     4     1    30    1
     5     2    27    1
     6     2     3    2
     7     3     4    1
     8     4     5    1
     9     4    26    2
    10     5     6    2
    11     5     7   am
    12     7    23    1
    13     7     8    1
    14     8     9    1
    15     8    31    1
    16     8    32    1
    17     9    10    1
    18     9    11    1
    19     9    21    1
    20    11    12   am
    21    11    33    1
    22    12    13    2
    23    12    14    1
    24    14    20    1
    25    14    15    2
    26    15    16    1
    27    15    34    1
    28    16    17    2
    29    16    18   am
    30    18    19    1
    31    18    20    1
    32    19    35    1
    33    19    36    1
    34    19    37    1
    35    21    22    1
    36    21    38    1
    37    21    39    1
    38    22    23    1
    39    22    40    1
    40    22    41    1
    41    23    24    1
    42    23    25    1
    43    25    42    1
    44    25    43    1
    45    25    44    1
    46    26    27    1
    47    26    45    1
    48    27    46    1
@<TRIPOS>SUBSTRUCTURE
     1 ZINC001018118384        1 TEMP              0 ****  ****    0 ROOT


##########                                Name:    ZINC000129637895
##########                DOCK_Rotatable_Bonds:                   7
##########                         Heavy_Atoms:                  26
##########                    Molecular_Weight:             374.464
##########                DOCK_Rotatable_Bonds:                   7
##########                       Formal_Charge:        -5.51343e-07
##########                     HBond_Acceptors:                   8
##########                        HBond_Donors:                   1
##########                         Heavy_Atoms:                  26
##########                          Grid_Score:          -25.931063
##########                     Grid_vdw_energy:          -25.189682
##########                      Grid_es_energy:           -0.741381
##########           Internal_energy_repulsive:           20.629135

@<TRIPOS>MOLECULE
ZINC000129637895
 48 50 1 0 0
SMALL
USER_CHARGES


@<TRIPOS>ATOM
      1 C1        -15.9198   -2.9419   56.8069 C.3     1  ZINC000129637895   -0.1500
      2 C2        -15.3218   -3.8331   57.8973 C.3     1  ZINC000129637895   -0.0500
      3 C3        -14.6771   -2.9718   58.9525 C.2     1  ZINC000129637895    0.0300
      4 C4        -13.4790   -2.3842   58.7830 C.2     1  ZINC000129637895   -0.0200
      5 N5        -12.6736   -2.4740   57.6485 N.am    1  ZINC000129637895   -0.5900
      6 C6        -11.6301   -1.6348   57.4948 C.2     1  ZINC000129637895    0.5000
      7 O7        -11.3908   -0.8016   58.3448 O.2     1  ZINC000129637895   -0.4800
      8 C8        -10.7690   -1.7298   56.2794 C.2     1  ZINC000129637895    0.5200
      9 O9         -9.9371   -2.6093   56.1923 O.2     1  ZINC000129637895   -0.5100
     10 N10       -10.9152   -0.8390   55.2786 N.am    1  ZINC000129637895   -0.5800
     11 C11       -10.0813   -0.9183   54.0696 C.3     1  ZINC000129637895    0.0800
     12 C12       -10.9986   -0.8868   52.8426 C.3     1  ZINC000129637895    0.0400
     13 N13       -11.8723    0.2917   52.9184 N.3     1  ZINC000129637895   -0.4900
     14 C14       -12.6084    0.4457   51.7414 C.ar    1  ZINC000129637895    0.1500
     15 C15       -12.3604    1.5247   50.9020 C.ar    1  ZINC000129637895   -0.2100
     16 C16       -13.0883    1.6765   49.7376 C.ar    1  ZINC000129637895   -0.0500
     17 C17       -14.0644    0.7567   49.4050 C.ar    1  ZINC000129637895   -0.2300
     18 C18       -14.3165   -0.3233   50.2398 C.ar    1  ZINC000129637895    0.1500
     19 O19       -15.2766   -1.2272   49.9109 O.3     1  ZINC000129637895   -0.3200
     20 C20       -16.4869   -1.1932   50.6698 C.3     1  ZINC000129637895    0.0300
     21 C21       -13.5849   -0.4823   51.4058 C.ar    1  ZINC000129637895   -0.1700
     22 C22       -12.7582    0.2240   54.0882 C.3     1  ZINC000129637895    0.0400
     23 C23       -11.9171    0.2344   55.3637 C.3     1  ZINC000129637895    0.1100
     24 S24       -13.1090   -1.4798   60.2493 S.3     1  ZINC000129637895    0.2400
     25 C25       -14.5908   -1.9768   60.9417 C.2     1  ZINC000129637895   -0.0300
     26 N26       -15.2416   -2.7257   60.1176 N.2     1  ZINC000129637895   -0.4500
     27 H27       -16.6692   -2.2835   57.2462 H       1  ZINC000129637895    0.0600
     28 H28       -15.1302   -2.3424   56.3539 H       1  ZINC000129637895    0.0500
     29 H29       -16.3861   -3.5649   56.0436 H       1  ZINC000129637895    0.0700
     30 H30       -16.1114   -4.4327   58.3502 H       1  ZINC000129637895    0.0900
     31 H31       -14.5723   -4.4915   57.4580 H       1  ZINC000129637895    0.0700
     32 H32       -12.8640   -3.1404   56.9700 H       1  ZINC000129637895    0.4300
     33 H33        -9.3994   -0.0685   54.0389 H       1  ZINC000129637895    0.0900
     34 H34        -9.5122   -1.8479   54.0776 H       1  ZINC000129637895    0.1400
     35 H35       -10.3936   -0.8335   51.9375 H       1  ZINC000129637895    0.1000
     36 H36       -11.6078   -1.7904   52.8205 H       1  ZINC000129637895    0.0500
     37 H37       -11.5986    2.2453   51.1600 H       1  ZINC000129637895    0.1300
     38 H38       -12.8942    2.5157   49.0862 H       1  ZINC000129637895    0.1300
     39 H39       -14.6322    0.8785   48.4944 H       1  ZINC000129637895    0.1300
     40 H40       -16.2620   -1.3742   51.7208 H       1  ZINC000129637895    0.0600
     41 H41       -16.9561   -0.2153   50.5618 H       1  ZINC000129637895    0.0600
     42 H42       -17.1659   -1.9641   50.3054 H       1  ZINC000129637895    0.1000
     43 H43       -13.7795   -1.3222   52.0563 H       1  ZINC000129637895    0.1300
     44 H44       -13.4293    1.0828   54.0864 H       1  ZINC000129637895    0.1000
     45 H45       -13.3429   -0.6951   54.0489 H       1  ZINC000129637895    0.0500
     46 H46       -12.5606    0.0692   56.2279 H       1  ZINC000129637895    0.1100
     47 H47       -11.4095    1.1941   55.4598 H       1  ZINC000129637895    0.0900
     48 H48       -14.9350   -1.6997   61.9272 H       1  ZINC000129637895    0.2000
@<TRIPOS>BOND
     1     1     2    1
     2     1    27    1
     3     1    28    1
     4     1    29    1
     5     2     3    1
     6     2    30    1
     7     2    31    1
     8     3    26    1
     9     3     4    2
    10     4     5    1
    11     4    24    1
    12     5     6   am
    13     5    32    1
    14     6     7    2
    15     6     8    1
    16     8     9    2
    17     8    10   am
    18    10    23    1
    19    10    11    1
    20    11    12    1
    21    11    33    1
    22    11    34    1
    23    12    13    1
    24    12    35    1
    25    12    36    1
    26    13    14    1
    27    13    22    1
    28    14    21   ar
    29    14    15   ar
    30    15    16   ar
    31    15    37    1
    32    16    17   ar
    33    16    38    1
    34    17    18   ar
    35    17    39    1
    36    18    19    1
    37    18    21   ar
    38    19    20    1
    39    20    40    1
    40    20    41    1
    41    20    42    1
    42    21    43    1
    43    22    23    1
    44    22    44    1
    45    22    45    1
    46    23    46    1
    47    23    47    1
    48    24    25    1
    49    25    26    2
    50    25    48    1
@<TRIPOS>SUBSTRUCTURE
     1 ZINC000129637895        1 TEMP              0 ****  ****    0 ROOT


##########                                Name:    ZINC001122903793
##########                DOCK_Rotatable_Bonds:                   4
##########                         Heavy_Atoms:                  25
##########                    Molecular_Weight:             399.968
##########                DOCK_Rotatable_Bonds:                   4
##########                       Formal_Charge:           0.0100003
##########                     HBond_Acceptors:                   9
##########                        HBond_Donors:                   0
##########                         Heavy_Atoms:                  25
##########                          Grid_Score:          -25.894909
##########                     Grid_vdw_energy:          -25.172293
##########                      Grid_es_energy:           -0.722616
##########           Internal_energy_repulsive:           12.840619

@<TRIPOS>MOLECULE
ZINC001122903793
 47 50 1 0 0
SMALL
USER_CHARGES


@<TRIPOS>ATOM
      1 C1        -13.0624   -0.3035   53.5605 C.3     1  ZINC001122903793   -0.1400
      2 C2        -11.8129   -0.4922   54.4231 C.3     1  ZINC001122903793   -0.0400
      3 H3        -11.2491    0.4399   54.4598 H       1  ZINC001122903793    0.1000
      4 S4        -10.7744   -1.8071   53.7152 S.3     1  ZINC001122903793   -0.2500
      5 C5         -9.5283   -2.0444   55.0189 C.3     1  ZINC001122903793   -0.0800
      6 C6        -10.2533   -2.2450   56.3540 C.3     1  ZINC001122903793    0.0700
      7 N7        -11.0329   -1.0491   56.6815 N.3     1  ZINC001122903793   -0.4800
      8 C8        -11.3691   -1.0282   58.0252 C.2     1  ZINC001122903793    0.3700
      9 N9        -12.1006   -1.9155   58.6581 N.2     1  ZINC001122903793   -0.2900
     10 N10       -12.2155   -1.5925   59.8966 N.2     1  ZINC001122903793   -0.2400
     11 C11       -11.5624   -0.4758   60.1311 C.2     1  ZINC001122903793    0.2600
     12 C12       -11.4532    0.2199   61.4238 C.2     1  ZINC001122903793   -0.1600
     13 C13       -12.4679    0.8045   62.1037 C.2     1  ZINC001122903793    0.1600
     14 Cl14      -14.1054    0.8191   61.5272 Cl      1  ZINC001122903793    0.0300
     15 N15       -12.1051    1.3601   63.2383 N.2     1  ZINC001122903793   -0.4600
     16 C16       -10.8570    1.2850   63.5624 C.2     1  ZINC001122903793    0.0300
     17 S17        -9.9803    0.4341   62.3668 S.3     1  ZINC001122903793    0.2200
     18 N18       -10.9959   -0.0831   58.9391 N.pl3   1  ZINC001122903793   -0.4600
     19 C19       -10.1715    1.1039   58.6991 C.3     1  ZINC001122903793    0.1100
     20 C20        -8.7062    0.6872   58.5585 C.3     1  ZINC001122903793    0.0700
     21 H21        -8.6107   -0.1178   57.8299 H       1  ZINC001122903793    0.0800
     22 C22        -7.8402    1.9006   58.1358 C.3     1  ZINC001122903793   -0.1500
     23 C23        -6.4475    1.4695   58.6711 C.3     1  ZINC001122903793   -0.1500
     24 C24        -6.8154    0.6925   59.9534 C.3     1  ZINC001122903793    0.0500
     25 O25        -8.1811    0.2737   59.8300 O.3     1  ZINC001122903793   -0.3700
     26 C26       -12.2236   -0.9017   55.8416 C.3     1  ZINC001122903793    0.1000
     27 H27       -12.7570   -1.8514   55.7996 H       1  ZINC001122903793    0.0800
     28 C28       -13.1383    0.1690   56.4398 C.3     1  ZINC001122903793   -0.1500
     29 H29       -13.6861    0.4800   53.9908 H       1  ZINC001122903793    0.0800
     30 H30       -12.7671   -0.0192   52.5505 H       1  ZINC001122903793    0.0700
     31 H31       -13.6241   -1.2370   53.5256 H       1  ZINC001122903793    0.0700
     32 H32        -8.9255   -2.9242   54.7936 H       1  ZINC001122903793    0.1200
     33 H33        -8.8883   -1.1640   55.0783 H       1  ZINC001122903793    0.0900
     34 H34       -10.9212   -3.1031   56.2781 H       1  ZINC001122903793    0.0700
     35 H35        -9.5206   -2.4263   57.1403 H       1  ZINC001122903793    0.0900
     36 H36       -10.4287    1.6977   64.4637 H       1  ZINC001122903793    0.2100
     37 H37       -10.4993    1.5947   57.7827 H       1  ZINC001122903793    0.1200
     38 H38       -10.2745    1.7932   59.5372 H       1  ZINC001122903793    0.1000
     39 H39        -7.8263    2.0148   57.0520 H       1  ZINC001122903793    0.0900
     40 H40        -8.1816    2.8149   58.6211 H       1  ZINC001122903793    0.0800
     41 H41        -5.9410    0.8209   57.9564 H       1  ZINC001122903793    0.0800
     42 H42        -5.8360    2.3405   58.9073 H       1  ZINC001122903793    0.0900
     43 H43        -6.1702   -0.1803   60.0548 H       1  ZINC001122903793    0.0700
     44 H44        -6.7033    1.3399   60.8231 H       1  ZINC001122903793    0.0700
     45 H45       -12.6050    1.1186   56.4849 H       1  ZINC001122903793    0.0600
     46 H46       -14.0249    0.2796   55.8154 H       1  ZINC001122903793    0.0800
     47 H47       -13.4366   -0.1283   57.4451 H       1  ZINC001122903793    0.0600
@<TRIPOS>BOND
     1     1     2    1
     2     1    29    1
     3     1    30    1
     4     1    31    1
     5     2     3    1
     6     2    26    1
     7     2     4    1
     8     4     5    1
     9     5     6    1
    10     5    32    1
    11     5    33    1
    12     6     7    1
    13     6    34    1
    14     6    35    1
    15     7     8    1
    16     7    26    1
    17     8    18    1
    18     8     9    2
    19     9    10    1
    20    10    11    2
    21    11    12    1
    22    11    18    1
    23    12    17    1
    24    12    13    2
    25    13    14    1
    26    13    15    1
    27    15    16    2
    28    16    17    1
    29    16    36    1
    30    18    19    1
    31    19    20    1
    32    19    37    1
    33    19    38    1
    34    20    21    1
    35    20    25    1
    36    20    22    1
    37    22    23    1
    38    22    39    1
    39    22    40    1
    40    23    24    1
    41    23    41    1
    42    23    42    1
    43    24    25    1
    44    24    43    1
    45    24    44    1
    46    26    27    1
    47    26    28    1
    48    28    45    1
    49    28    46    1
    50    28    47    1
@<TRIPOS>SUBSTRUCTURE
     1 ZINC001122903793        1 TEMP              0 ****  ****    0 ROOT


##########                                Name:    ZINC001045463759
##########                DOCK_Rotatable_Bonds:                   6
##########                         Heavy_Atoms:                  24
##########                    Molecular_Weight:             336.385
##########                DOCK_Rotatable_Bonds:                   6
##########                       Formal_Charge:          1.3411e-07
##########                     HBond_Acceptors:                   7
##########                        HBond_Donors:                   2
##########                         Heavy_Atoms:                  24
##########                          Grid_Score:          -25.878958
##########                     Grid_vdw_energy:          -24.910471
##########                      Grid_es_energy:           -0.968486
##########           Internal_energy_repulsive:           12.802531

@<TRIPOS>MOLECULE
ZINC001045463759
 46 49 1 0 0
SMALL
USER_CHARGES


@<TRIPOS>ATOM
      1 O1         -6.9567   -0.7467   60.1008 O.2     1  ZINC001045463759   -0.5100
      2 C2         -7.2127    0.2423   60.7545 C.2     1  ZINC001045463759    0.5400
      3 N3         -7.7857    1.3101   60.1647 N.am    1  ZINC001045463759   -0.7200
      4 C4         -8.0937    1.2786   58.7328 C.3     1  ZINC001045463759    0.1400
      5 H5         -7.6148    0.4118   58.2773 H       1  ZINC001045463759    0.1000
      6 C6         -7.5726    2.5556   58.0708 C.3     1  ZINC001045463759   -0.1300
      7 C7         -7.8941    2.5227   56.5753 C.3     1  ZINC001045463759   -0.1200
      8 C8         -9.4089    2.4292   56.3813 C.3     1  ZINC001045463759   -0.1200
      9 C9         -9.9300    1.1521   57.0434 C.3     1  ZINC001045463759   -0.1300
     10 C10        -9.6084    1.1850   58.5388 C.3     1  ZINC001045463759    0.1500
     11 H11       -10.0872    2.0519   58.9943 H       1  ZINC001045463759    0.0900
     12 N12       -10.1074   -0.0378   59.1727 N.pl3   1  ZINC001045463759   -0.7100
     13 C13       -10.6175   -1.0635   58.3936 C.ar    1  ZINC001045463759    0.4400
     14 C14        -9.7684   -2.0251   57.8424 C.ar    1  ZINC001045463759   -0.3000
     15 C15       -10.3253   -3.0276   57.0729 C.ar    1  ZINC001045463759    0.1800
     16 N16       -11.6372   -3.0447   56.8841 N.ar    1  ZINC001045463759   -0.5600
     17 C17       -12.4121   -2.1222   57.4182 C.ar    1  ZINC001045463759    0.4000
     18 C18       -13.8982   -2.1833   57.1753 C.3     1  ZINC001045463759   -0.1100
     19 C19       -14.7539   -2.9138   58.2121 C.3     1  ZINC001045463759   -0.1500
     20 C20       -14.8015   -1.3874   58.1195 C.3     1  ZINC001045463759   -0.1500
     21 N21       -11.9244   -1.1512   58.1632 N.ar    1  ZINC001045463759   -0.5700
     22 C22        -6.8959    0.2748   62.2275 C.3     1  ZINC001045463759   -0.2000
     23 H23        -6.2506   -0.5265   62.5873 H       1  ZINC001045463759    0.1500
     24 C24        -6.7546    1.6469   62.8896 C.3     1  ZINC001045463759   -0.1500
     25 C25        -7.9859    0.7828   63.1735 C.3     1  ZINC001045463759    0.2300
     26 F26        -9.2002    1.1820   62.6048 F       1  ZINC001045463759   -0.1400
     27 F27        -8.0778    0.1837   64.4343 F       1  ZINC001045463759   -0.1500
     28 H28        -7.9941    2.0997   60.6883 H       1  ZINC001045463759    0.4000
     29 H29        -8.0513    3.4224   58.5263 H       1  ZINC001045463759    0.0700
     30 H30        -6.4933    2.6223   58.2089 H       1  ZINC001045463759    0.0800
     31 H31        -7.5228    3.4325   56.1036 H       1  ZINC001045463759    0.0700
     32 H32        -7.4153    1.6559   56.1198 H       1  ZINC001045463759    0.0700
     33 H33        -9.8876    3.2959   56.8368 H       1  ZINC001045463759    0.0700
     34 H34        -9.6380    2.4057   55.3160 H       1  ZINC001045463759    0.0700
     35 H35       -11.0092    1.0854   56.9052 H       1  ZINC001045463759    0.0700
     36 H36        -9.4512    0.2853   56.5878 H       1  ZINC001045463759    0.0700
     37 H37       -10.0808   -0.1292   60.1380 H       1  ZINC001045463759    0.4100
     38 H38        -8.7026   -1.9856   58.0131 H       1  ZINC001045463759    0.1400
     39 H39        -9.6996   -3.7884   56.6301 H       1  ZINC001045463759    0.1700
     40 H40       -14.2012   -2.2557   56.1309 H       1  ZINC001045463759    0.1300
     41 H41       -15.6203   -3.4673   57.8497 H       1  ZINC001045463759    0.1000
     42 H42       -14.2420   -3.3503   59.0698 H       1  ZINC001045463759    0.1100
     43 H43       -14.3210   -0.8196   58.9162 H       1  ZINC001045463759    0.1000
     44 H44       -15.6991   -0.9366   57.6963 H       1  ZINC001045463759    0.1000
     45 H45        -6.0166    1.7481   63.6853 H       1  ZINC001045463759    0.1400
     46 H46        -6.8908    2.5260   62.2598 H       1  ZINC001045463759    0.1300
@<TRIPOS>BOND
     1     1     2    2
     2     2     3   am
     3     2    22    1
     4     3     4    1
     5     3    28    1
     6     4     5    1
     7     4    10    1
     8     4     6    1
     9     6     7    1
    10     6    29    1
    11     6    30    1
    12     7     8    1
    13     7    31    1
    14     7    32    1
    15     8     9    1
    16     8    33    1
    17     8    34    1
    18     9    10    1
    19     9    35    1
    20     9    36    1
    21    10    11    1
    22    10    12    1
    23    12    13    1
    24    12    37    1
    25    13    21   ar
    26    13    14   ar
    27    14    15   ar
    28    14    38    1
    29    15    16   ar
    30    15    39    1
    31    16    17   ar
    32    17    18    1
    33    17    21   ar
    34    18    20    1
    35    18    19    1
    36    18    40    1
    37    19    20    1
    38    19    41    1
    39    19    42    1
    40    20    43    1
    41    20    44    1
    42    22    23    1
    43    22    25    1
    44    22    24    1
    45    24    25    1
    46    24    45    1
    47    24    46    1
    48    25    26    1
    49    25    27    1
@<TRIPOS>SUBSTRUCTURE
     1 ZINC001045463759        1 TEMP              0 ****  ****    0 ROOT


##########                                Name:    ZINC000840649129
##########                DOCK_Rotatable_Bonds:                   8
##########                         Heavy_Atoms:                  26
##########                    Molecular_Weight:             376.839
##########                DOCK_Rotatable_Bonds:                   8
##########                       Formal_Charge:          -0.0199998
##########                     HBond_Acceptors:                   7
##########                        HBond_Donors:                   3
##########                         Heavy_Atoms:                  26
##########                          Grid_Score:          -25.867277
##########                     Grid_vdw_energy:          -24.458361
##########                      Grid_es_energy:           -1.408917
##########           Internal_energy_repulsive:           18.962206

@<TRIPOS>MOLECULE
ZINC000840649129
 47 48 1 0 0
SMALL
USER_CHARGES


@<TRIPOS>ATOM
      1 C1         -9.7038   -0.6477   55.7341 C.3     1  ZINC000840649129    0.0200
      2 O2         -9.7278    0.1784   54.5683 O.3     1  ZINC000840649129   -0.2900
      3 C3         -8.5698    0.2915   53.8693 C.ar    1  ZINC000840649129    0.1400
      4 C4         -8.1512   -0.7427   53.0462 C.ar    1  ZINC000840649129   -0.1700
      5 C5         -6.9738   -0.6297   52.3344 C.ar    1  ZINC000840649129   -0.1200
      6 C6         -6.1989    0.5208   52.4364 C.ar    1  ZINC000840649129    0.1700
      7 N7         -5.0068    0.6262   51.7108 N.pl3   1  ZINC000840649129   -0.8800
      8 C8         -6.6044    1.5621   53.2534 C.ar    1  ZINC000840649129   -0.1000
      9 C9         -7.7972    1.4565   53.9734 C.ar    1  ZINC000840649129   -0.1200
     10 C10        -8.2363    2.5610   54.8453 C.2     1  ZINC000840649129    0.5100
     11 O11        -8.5823    3.6190   54.3579 O.2     1  ZINC000840649129   -0.4800
     12 O12        -8.2542    2.3973   56.1827 O.3     1  ZINC000840649129   -0.3200
     13 C13        -6.9740    2.2053   56.8405 C.3     1  ZINC000840649129    0.0800
     14 H14        -6.3589    1.5282   56.2479 H       1  ZINC000840649129    0.1200
     15 C15        -7.1961    1.6145   58.2090 C.2     1  ZINC000840649129    0.5200
     16 O16        -6.3912    0.8331   58.6701 O.2     1  ZINC000840649129   -0.4900
     17 N17        -8.2891    1.9545   58.9204 N.am    1  ZINC000840649129   -0.6600
     18 C18        -8.4954    1.4057   60.1916 C.ar    1  ZINC000840649129    0.1600
     19 C19        -7.5048    1.5007   61.1593 C.ar    1  ZINC000840649129   -0.1400
     20 C20        -7.7116    0.9585   62.4132 C.ar    1  ZINC000840649129   -0.0900
     21 C21        -8.9034    0.3217   62.7052 C.ar    1  ZINC000840649129   -0.1300
     22 C22        -9.8927    0.2245   61.7436 C.ar    1  ZINC000840649129   -0.0900
     23 C23        -9.6948    0.7696   60.4894 C.ar    1  ZINC000840649129   -0.0700
     24 Cl24      -10.9371    0.6479   59.2828 Cl      1  ZINC000840649129   -0.0700
     25 C25        -6.2632    3.5533   56.9763 C.3     1  ZINC000840649129   -0.1100
     26 C26        -7.2586    4.6078   57.4644 C.3     1  ZINC000840649129   -0.1600
     27 C27        -5.1189    3.4272   57.9842 C.3     1  ZINC000840649129   -0.1500
     28 H28       -10.6905   -0.6511   56.1974 H       1  ZINC000840649129    0.1000
     29 H29        -9.4309   -1.6648   55.4531 H       1  ZINC000840649129    0.0600
     30 H30        -8.9719   -0.2572   56.4411 H       1  ZINC000840649129    0.0600
     31 H31        -8.7476   -1.6391   52.9621 H       1  ZINC000840649129    0.1400
     32 H32        -6.6526   -1.4390   51.6954 H       1  ZINC000840649129    0.1300
     33 H33        -4.7217   -0.1026   51.1377 H       1  ZINC000840649129    0.4000
     34 H34        -4.4655    1.4280   51.7811 H       1  ZINC000840649129    0.4000
     35 H35        -6.0020    2.4551   53.3315 H       1  ZINC000840649129    0.1400
     36 H36        -8.9327    2.5795   58.5517 H       1  ZINC000840649129    0.4200
     37 H37        -6.5733    1.9976   60.9323 H       1  ZINC000840649129    0.1700
     38 H38        -6.9409    1.0320   63.1663 H       1  ZINC000840649129    0.1300
     39 H39        -9.0621   -0.1012   63.6862 H       1  ZINC000840649129    0.1300
     40 H40       -10.8226   -0.2739   61.9747 H       1  ZINC000840649129    0.1400
     41 H41        -5.8629    3.8523   56.0076 H       1  ZINC000840649129    0.0900
     42 H42        -7.7525    4.2506   58.3680 H       1  ZINC000840649129    0.0700
     43 H43        -6.7282    5.5347   57.6825 H       1  ZINC000840649129    0.0800
     44 H44        -8.0042    4.7893   56.6903 H       1  ZINC000840649129    0.0600
     45 H45        -4.4097    2.6759   57.6365 H       1  ZINC000840649129    0.0500
     46 H46        -4.6125    4.3876   58.0810 H       1  ZINC000840649129    0.0600
     47 H47        -5.5191    3.1282   58.9529 H       1  ZINC000840649129    0.0700
@<TRIPOS>BOND
     1     1     2    1
     2     1    28    1
     3     1    29    1
     4     1    30    1
     5     2     3    1
     6     3     9   ar
     7     3     4   ar
     8     4     5   ar
     9     4    31    1
    10     5     6   ar
    11     5    32    1
    12     6     7    1
    13     6     8   ar
    14     7    33    1
    15     7    34    1
    16     8     9   ar
    17     8    35    1
    18     9    10    1
    19    10    11    2
    20    10    12    1
    21    12    13    1
    22    13    14    1
    23    13    15    1
    24    13    25    1
    25    15    16    2
    26    15    17   am
    27    17    18    1
    28    17    36    1
    29    18    23   ar
    30    18    19   ar
    31    19    20   ar
    32    19    37    1
    33    20    21   ar
    34    20    38    1
    35    21    22   ar
    36    21    39    1
    37    22    23   ar
    38    22    40    1
    39    23    24    1
    40    25    26    1
    41    25    27    1
    42    25    41    1
    43    26    42    1
    44    26    43    1
    45    26    44    1
    46    27    45    1
    47    27    46    1
    48    27    47    1
@<TRIPOS>SUBSTRUCTURE
     1 ZINC000840649129        1 TEMP              0 ****  ****    0 ROOT


##########                                Name:    ZINC000518242403
##########                DOCK_Rotatable_Bonds:                   6
##########                         Heavy_Atoms:                  27
##########                    Molecular_Weight:             370.405
##########                DOCK_Rotatable_Bonds:                   6
##########                       Formal_Charge:          -0.0200004
##########                     HBond_Acceptors:                   7
##########                        HBond_Donors:                   1
##########                         Heavy_Atoms:                  27
##########                          Grid_Score:          -25.865158
##########                     Grid_vdw_energy:          -25.010073
##########                      Grid_es_energy:           -0.855085
##########           Internal_energy_repulsive:           18.788830

@<TRIPOS>MOLECULE
ZINC000518242403
 49 52 1 0 0
SMALL
USER_CHARGES


@<TRIPOS>ATOM
      1 C1         -8.1740    1.3312   57.6078 C.3     1  ZINC000518242403   -0.1800
      2 C2         -8.7570    1.7682   58.9532 C.3     1  ZINC000518242403    0.1000
      3 N3         -8.8134    0.6174   59.8579 N.am    1  ZINC000518242403   -0.6200
      4 C4         -7.6700    0.3060   60.7192 C.3     1  ZINC000518242403    0.1500
      5 C5         -7.8637    0.9702   62.0838 C.3     1  ZINC000518242403    0.0300
      6 H6         -7.9285    2.0512   61.9606 H       1  ZINC000518242403    0.0900
      7 C7         -9.1499    0.4459   62.7366 C.3     1  ZINC000518242403    0.0300
      8 O8         -9.2931    1.0758   64.0144 O.3     1  ZINC000518242403   -0.3000
      9 C9         -8.1850    1.1166   64.8036 C.ar    1  ZINC000518242403    0.0500
     10 C10        -8.3241    1.3709   66.1596 C.ar    1  ZINC000518242403   -0.1100
     11 C11        -7.2076    1.4186   66.9734 C.ar    1  ZINC000518242403   -0.1200
     12 C12        -5.9501    1.2129   66.4381 C.ar    1  ZINC000518242403   -0.1200
     13 C13        -5.8046    0.9573   65.0873 C.ar    1  ZINC000518242403   -0.1100
     14 C14        -6.9204    0.9070   64.2656 C.ar    1  ZINC000518242403    0.0500
     15 O15        -6.7617    0.6470   62.9389 O.3     1  ZINC000518242403   -0.3000
     16 C16        -9.9172   -0.1549   59.8978 C.2     1  ZINC000518242403    0.7100
     17 O17        -9.9647   -1.1092   60.6499 O.2     1  ZINC000518242403   -0.5700
     18 N18       -10.9685    0.1306   59.1043 N.am    1  ZINC000518242403   -0.6800
     19 C19       -12.1163   -0.6724   59.1459 C.ar    1  ZINC000518242403    0.1700
     20 C20       -12.2323   -1.7618   58.2938 C.ar    1  ZINC000518242403   -0.1000
     21 C21       -13.3667   -2.5554   58.3356 C.ar    1  ZINC000518242403    0.0500
     22 C22       -14.3892   -2.2579   59.2333 C.ar    1  ZINC000518242403    0.0200
     23 C23       -14.2697   -1.1691   60.0817 C.ar    1  ZINC000518242403   -0.0800
     24 C24       -13.1349   -0.3816   60.0434 C.ar    1  ZINC000518242403   -0.1000
     25 C25       -13.0085    0.8020   60.9676 C.3     1  ZINC000518242403   -0.1100
     26 O26       -15.3858   -3.1795   59.0798 O.3     1  ZINC000518242403   -0.3100
     27 C27       -15.1439   -3.7977   57.8021 C.3     1  ZINC000518242403    0.2100
     28 O28       -13.7221   -3.6623   57.6203 O.3     1  ZINC000518242403   -0.3100
     29 H29        -7.1687    0.9376   57.7581 H       1  ZINC000518242403    0.0600
     30 H30        -8.8059    0.5573   57.1722 H       1  ZINC000518242403    0.0600
     31 H31        -8.1320    2.1875   56.9347 H       1  ZINC000518242403    0.0700
     32 H32        -8.1250    2.5423   59.3887 H       1  ZINC000518242403    0.1000
     33 H33        -9.7622    2.1619   58.8029 H       1  ZINC000518242403    0.0700
     34 H34        -7.5955   -0.7738   60.8480 H       1  ZINC000518242403    0.1100
     35 H35        -6.7558    0.6810   60.2591 H       1  ZINC000518242403    0.0900
     36 H36       -10.0067    0.6897   62.1085 H       1  ZINC000518242403    0.1300
     37 H37        -9.0830   -0.6345   62.8648 H       1  ZINC000518242403    0.0800
     38 H38        -9.3057    1.5321   66.5803 H       1  ZINC000518242403    0.1300
     39 H39        -7.3183    1.6167   68.0292 H       1  ZINC000518242403    0.1300
     40 H40        -5.0797    1.2522   67.0761 H       1  ZINC000518242403    0.1300
     41 H41        -4.8208    0.7970   64.6715 H       1  ZINC000518242403    0.1300
     42 H42       -10.9307    0.8919   58.5044 H       1  ZINC000518242403    0.4100
     43 H43       -11.4385   -1.9905   57.5982 H       1  ZINC000518242403    0.1500
     44 H44       -15.0625   -0.9385   60.7778 H       1  ZINC000518242403    0.1400
     45 H45       -12.5375    0.4871   61.8988 H       1  ZINC000518242403    0.0800
     46 H46       -12.3976    1.5700   60.4931 H       1  ZINC000518242403    0.0700
     47 H47       -13.9988    1.2050   61.1794 H       1  ZINC000518242403    0.0800
     48 H48       -15.4287   -4.8496   57.8255 H       1  ZINC000518242403    0.1300
     49 H49       -15.6827   -3.2716   57.0140 H       1  ZINC000518242403    0.0900
@<TRIPOS>BOND
     1     1     2    1
     2     1    29    1
     3     1    30    1
     4     1    31    1
     5     2     3    1
     6     2    32    1
     7     2    33    1
     8     3     4    1
     9     3    16   am
    10     4     5    1
    11     4    34    1
    12     4    35    1
    13     5     6    1
    14     5    15    1
    15     5     7    1
    16     7     8    1
    17     7    36    1
    18     7    37    1
    19     8     9    1
    20     9    14   ar
    21     9    10   ar
    22    10    11   ar
    23    10    38    1
    24    11    12   ar
    25    11    39    1
    26    12    13   ar
    27    12    40    1
    28    13    14   ar
    29    13    41    1
    30    14    15    1
    31    16    17    2
    32    16    18   am
    33    18    19    1
    34    18    42    1
    35    19    24   ar
    36    19    20   ar
    37    20    21   ar
    38    20    43    1
    39    21    28    1
    40    21    22   ar
    41    22    23   ar
    42    22    26    1
    43    23    24   ar
    44    23    44    1
    45    24    25    1
    46    25    45    1
    47    25    46    1
    48    25    47    1
    49    26    27    1
    50    27    28    1
    51    27    48    1
    52    27    49    1
@<TRIPOS>SUBSTRUCTURE
     1 ZINC000518242403        1 TEMP              0 ****  ****    0 ROOT


##########                                Name:    ZINC000459459628
##########                DOCK_Rotatable_Bonds:                   8
##########                         Heavy_Atoms:                  27
##########                    Molecular_Weight:             377.366
##########                DOCK_Rotatable_Bonds:                   8
##########                       Formal_Charge:         -0.00999984
##########                     HBond_Acceptors:                   8
##########                        HBond_Donors:                   1
##########                         Heavy_Atoms:                  27
##########                          Grid_Score:          -25.854088
##########                     Grid_vdw_energy:          -25.987793
##########                      Grid_es_energy:            0.133705
##########           Internal_energy_repulsive:           14.701916

@<TRIPOS>MOLECULE
ZINC000459459628
 45 46 1 0 0
SMALL
USER_CHARGES


@<TRIPOS>ATOM
      1 C1          0.4425    2.3598   58.9584 C.3     1  ZINC000459459628   -0.1600
      2 C2          1.2507    2.6350   57.6887 C.3     1  ZINC000459459628    0.1600
      3 H3          1.3138    1.7239   57.0936 H       1  ZINC000459459628    0.1100
      4 C4          2.6597    3.0934   58.0703 C.3     1  ZINC000459459628   -0.0900
      5 C5          3.4440    1.9199   58.5983 C.ar    1  ZINC000459459628   -0.0500
      6 C6          4.1480    1.1109   57.7263 C.ar    1  ZINC000459459628   -0.1200
      7 C7          4.8680    0.0338   58.2094 C.ar    1  ZINC000459459628   -0.0900
      8 C8          4.8845   -0.2350   59.5646 C.ar    1  ZINC000459459628   -0.1600
      9 C9          4.1800    0.5752   60.4392 C.ar    1  ZINC000459459628    0.1000
     10 F10         4.1954    0.3134   61.7645 F       1  ZINC000459459628   -0.1400
     11 C11         3.4637    1.6565   59.9550 C.ar    1  ZINC000459459628   -0.1500
     12 N12         0.5907    3.6839   56.9073 N.am    1  ZINC000459459628   -0.6200
     13 C13         0.9595    5.0876   57.1069 C.3     1  ZINC000459459628    0.0700
     14 C14        -0.3557    3.3574   56.0051 C.2     1  ZINC000459459628    0.7100
     15 O15        -0.6608    2.1923   55.8384 O.2     1  ZINC000459459628   -0.5700
     16 N16        -0.9640    4.3226   55.2874 N.am    1  ZINC000459459628   -0.6800
     17 C17        -1.9485    3.9830   54.3489 C.ar    1  ZINC000459459628    0.1500
     18 C18        -1.6191    3.2130   53.2487 C.ar    1  ZINC000459459628   -0.0400
     19 C19        -2.6037    2.8764   52.3157 C.ar    1  ZINC000459459628   -0.0300
     20 C20        -2.2682    2.0788   51.1748 C.1     1  ZINC000459459628    0.2600
     21 N21        -2.0021    1.4461   50.2696 N.1     1  ZINC000459459628   -0.4100
     22 C22        -3.9159    3.3193   52.4989 C.ar    1  ZINC000459459628   -0.0500
     23 C23        -4.2378    4.0872   53.5977 C.ar    1  ZINC000459459628   -0.1700
     24 C24        -3.2626    4.4173   54.5277 C.ar    1  ZINC000459459628    0.1100
     25 O25        -3.5851    5.1740   55.6086 O.3     1  ZINC000459459628   -0.3200
     26 C26        -4.3489    4.5425   56.6381 C.3     1  ZINC000459459628    0.4100
     27 F27        -5.6758    4.9804   56.5697 F       1  ZINC000459459628   -0.1900
     28 F28        -4.3062    3.1548   56.4657 F       1  ZINC000459459628   -0.1900
     29 H29         0.3795    3.2709   59.5535 H       1  ZINC000459459628    0.0600
     30 H30        -0.5612    2.0333   58.6865 H       1  ZINC000459459628    0.0600
     31 H31         0.9336    1.5795   59.5396 H       1  ZINC000459459628    0.0700
     32 H32         3.1603    3.4990   57.1911 H       1  ZINC000459459628    0.0800
     33 H33         2.5954    3.8631   58.8393 H       1  ZINC000459459628    0.0900
     34 H34         4.1353    1.3200   56.6669 H       1  ZINC000459459628    0.1300
     35 H35         5.4174   -0.5978   57.5270 H       1  ZINC000459459628    0.1300
     36 H36         5.4464   -1.0767   59.9417 H       1  ZINC000459459628    0.1300
     37 H37         2.9142    2.2891   60.6362 H       1  ZINC000459459628    0.1300
     38 H38         1.7731    5.3491   56.4303 H       1  ZINC000459459628    0.0600
     39 H39         0.0976    5.7224   56.9013 H       1  ZINC000459459628    0.0700
     40 H40         1.2822    5.2355   58.1374 H       1  ZINC000459459628    0.0800
     41 H41        -0.7207    5.2521   55.4204 H       1  ZINC000459459628    0.4100
     42 H42        -0.6034    2.8728   53.1105 H       1  ZINC000459459628    0.1600
     43 H43        -4.6784    3.0604   51.7792 H       1  ZINC000459459628    0.1400
     44 H44        -5.2527    4.4292   53.7372 H       1  ZINC000459459628    0.1500
     45 H45        -3.9307    4.8007   57.6110 H       1  ZINC000459459628    0.1900
@<TRIPOS>BOND
     1     1     2    1
     2     1    29    1
     3     1    30    1
     4     1    31    1
     5     2     3    1
     6     2     4    1
     7     2    12    1
     8     4     5    1
     9     4    32    1
    10     4    33    1
    11     5    11   ar
    12     5     6   ar
    13     6     7   ar
    14     6    34    1
    15     7     8   ar
    16     7    35    1
    17     8     9   ar
    18     8    36    1
    19     9    10    1
    20     9    11   ar
    21    11    37    1
    22    12    13    1
    23    12    14   am
    24    13    38    1
    25    13    39    1
    26    13    40    1
    27    14    15    2
    28    14    16   am
    29    16    17    1
    30    16    41    1
    31    17    24   ar
    32    17    18   ar
    33    18    19   ar
    34    18    42    1
    35    19    20    1
    36    19    22   ar
    37    20    21    3
    38    22    23   ar
    39    22    43    1
    40    23    24   ar
    41    23    44    1
    42    24    25    1
    43    25    26    1
    44    26    27    1
    45    26    28    1
    46    26    45    1
@<TRIPOS>SUBSTRUCTURE
     1 ZINC000459459628        1 TEMP              0 ****  ****    0 ROOT


##########                                Name:    ZINC000790735374
##########                DOCK_Rotatable_Bonds:                   5
##########                         Heavy_Atoms:                  25
##########                    Molecular_Weight:             353.445
##########                DOCK_Rotatable_Bonds:                   5
##########                       Formal_Charge:                   0
##########                     HBond_Acceptors:                   6
##########                        HBond_Donors:                   1
##########                         Heavy_Atoms:                  25
##########                          Grid_Score:          -25.790993
##########                     Grid_vdw_energy:          -24.949409
##########                      Grid_es_energy:           -0.841583
##########           Internal_energy_repulsive:            8.928554

@<TRIPOS>MOLECULE
ZINC000790735374
 44 47 1 0 0
SMALL
USER_CHARGES


@<TRIPOS>ATOM
      1 O1         -9.3279    3.0289   57.2521 O.2     1  ZINC000790735374   -0.5100
      2 C2         -8.6577    2.1510   57.7530 C.2     1  ZINC000790735374    0.5000
      3 N3         -9.1927    0.9320   57.9638 N.am    1  ZINC000790735374   -0.7200
      4 C4        -10.5855    0.6693   57.5934 C.3     1  ZINC000790735374    0.1400
      5 C5        -10.6760   -0.6757   56.8698 C.3     1  ZINC000790735374   -0.0300
      6 H6        -10.5238   -0.5213   55.8016 H       1  ZINC000790735374    0.1100
      7 S7         -9.3900   -1.7855   57.5043 S.3     1  ZINC000790735374   -0.2400
      8 C8         -9.9558   -3.3825   56.8380 C.3     1  ZINC000790735374   -0.0800
      9 C9        -11.3005   -3.7003   57.4750 C.3     1  ZINC000790735374   -0.0800
     10 C10       -12.3075   -2.5942   57.3356 C.ar    1  ZINC000790735374   -0.0700
     11 C11       -13.6386   -3.0009   57.4767 C.ar    1  ZINC000790735374   -0.1200
     12 C12       -14.6772   -2.1038   57.3916 C.ar    1  ZINC000790735374   -0.1100
     13 C13       -14.4058   -0.7674   57.1640 C.ar    1  ZINC000790735374   -0.1200
     14 C14       -13.0989   -0.3617   57.0182 C.ar    1  ZINC000790735374   -0.1100
     15 C15       -12.0419   -1.2742   57.0980 C.ar    1  ZINC000790735374   -0.0800
     16 C16        -7.2249    2.4212   58.1341 C.3     1  ZINC000790735374    0.0300
     17 H17        -6.7556    3.1006   57.4225 H       1  ZINC000790735374    0.1500
     18 C18        -7.1303    2.9765   59.5752 C.3     1  ZINC000790735374   -0.1400
     19 C19        -6.8896    1.7238   60.3960 C.2     1  ZINC000790735374    0.1200
     20 C20        -7.0342    1.6082   61.8608 C.ar    1  ZINC000790735374   -0.1000
     21 C21        -7.2081    2.7505   62.6513 C.ar    1  ZINC000790735374   -0.0400
     22 C22        -7.3394    2.5876   64.0194 C.ar    1  ZINC000790735374   -0.1700
     23 C23        -7.2950    1.3141   64.5569 C.ar    1  ZINC000790735374    0.1200
     24 N24        -7.1300    0.2551   63.7875 N.ar    1  ZINC000790735374   -0.4800
     25 C25        -7.0058    0.3575   62.4806 C.ar    1  ZINC000790735374    0.1400
     26 N26        -6.5365    0.7761   59.5939 N.2     1  ZINC000790735374   -0.2700
     27 O27        -6.4791    1.1918   58.2427 O.3     1  ZINC000790735374   -0.1600
     28 H28        -8.6556    0.2286   58.3608 H       1  ZINC000790735374    0.4100
     29 H29       -11.2013    0.6405   58.4923 H       1  ZINC000790735374    0.0800
     30 H30       -10.9417    1.4611   56.9344 H       1  ZINC000790735374    0.0900
     31 H31       -10.0670   -3.3128   55.7559 H       1  ZINC000790735374    0.0900
     32 H32        -9.2359   -4.1624   57.0865 H       1  ZINC000790735374    0.1100
     33 H33       -11.7034   -4.5996   57.0091 H       1  ZINC000790735374    0.0900
     34 H34       -11.1458   -3.8995   58.5353 H       1  ZINC000790735374    0.0900
     35 H35       -13.8555   -4.0435   57.6565 H       1  ZINC000790735374    0.1200
     36 H36       -15.6974   -2.4407   57.5013 H       1  ZINC000790735374    0.1300
     37 H37       -15.2106   -0.0499   57.1009 H       1  ZINC000790735374    0.1300
     38 H38       -12.8857    0.6821   56.8412 H       1  ZINC000790735374    0.1300
     39 H39        -6.2928    3.6677   59.6694 H       1  ZINC000790735374    0.1200
     40 H40        -8.0643    3.4567   59.8670 H       1  ZINC000790735374    0.1100
     41 H41        -7.2386    3.7335   62.2051 H       1  ZINC000790735374    0.1500
     42 H42        -7.4746    3.4461   64.6606 H       1  ZINC000790735374    0.1500
     43 H43        -7.3968    1.1843   65.6243 H       1  ZINC000790735374    0.1600
     44 H44        -6.8726   -0.5328   61.8839 H       1  ZINC000790735374    0.1600
@<TRIPOS>BOND
     1     1     2    2
     2     2     3   am
     3     2    16    1
     4     3     4    1
     5     3    28    1
     6     4     5    1
     7     4    29    1
     8     4    30    1
     9     5     6    1
    10     5    15    1
    11     5     7    1
    12     7     8    1
    13     8     9    1
    14     8    31    1
    15     8    32    1
    16     9    10    1
    17     9    33    1
    18     9    34    1
    19    10    15   ar
    20    10    11   ar
    21    11    12   ar
    22    11    35    1
    23    12    13   ar
    24    12    36    1
    25    13    14   ar
    26    13    37    1
    27    14    15   ar
    28    14    38    1
    29    16    17    1
    30    16    27    1
    31    16    18    1
    32    18    19    1
    33    18    39    1
    34    18    40    1
    35    19    20    1
    36    19    26    2
    37    20    25   ar
    38    20    21   ar
    39    21    22   ar
    40    21    41    1
    41    22    23   ar
    42    22    42    1
    43    23    24   ar
    44    23    43    1
    45    24    25   ar
    46    25    44    1
    47    26    27    1
@<TRIPOS>SUBSTRUCTURE
     1 ZINC000790735374        1 TEMP              0 ****  ****    0 ROOT


##########                                Name:    ZINC001271977984
##########                DOCK_Rotatable_Bonds:                   7
##########                         Heavy_Atoms:                  24
##########                    Molecular_Weight:             328.371
##########                DOCK_Rotatable_Bonds:                   7
##########                       Formal_Charge:           0.0200001
##########                     HBond_Acceptors:                   7
##########                        HBond_Donors:                   0
##########                         Heavy_Atoms:                  24
##########                          Grid_Score:          -25.790955
##########                     Grid_vdw_energy:          -24.681391
##########                      Grid_es_energy:           -1.109565
##########           Internal_energy_repulsive:           20.863155

@<TRIPOS>MOLECULE
ZINC001271977984
 44 46 1 0 0
SMALL
USER_CHARGES


@<TRIPOS>ATOM
      1 C1        -12.2284   -0.3955   54.7031 C.3     1  ZINC001271977984   -0.1800
      2 C2        -11.0149   -1.3273   54.6946 C.3     1  ZINC001271977984    0.1700
      3 H3        -11.2546   -2.2309   54.1341 H       1  ZINC001271977984    0.1100
      4 C4         -9.8488   -0.6278   54.0452 C.2     1  ZINC001271977984    0.2700
      5 N5         -8.8845   -1.2245   53.4115 N.2     1  ZINC001271977984   -0.4700
      6 C6         -8.0105   -0.2853   52.9583 C.ar    1  ZINC001271977984    0.0200
      7 C7         -6.8203   -0.3437   52.2321 C.ar    1  ZINC001271977984   -0.0600
      8 C8         -6.1515    0.8196   51.9221 C.ar    1  ZINC001271977984   -0.1200
      9 C9         -6.6535    2.0473   52.3270 C.ar    1  ZINC001271977984   -0.0900
     10 C10        -7.8287    2.1201   53.0457 C.ar    1  ZINC001271977984   -0.0900
     11 C11        -8.5152    0.9593   53.3661 C.ar    1  ZINC001271977984    0.0100
     12 O12        -9.6612    0.7013   54.0338 O.3     1  ZINC001271977984   -0.2100
     13 N13       -10.6636   -1.6863   56.0751 N.3     1  ZINC001271977984   -0.5300
     14 C14       -10.1004   -3.0415   56.1396 C.3     1  ZINC001271977984    0.0000
     15 C15        -9.7387   -0.7036   56.6555 C.3     1  ZINC001271977984    0.0400
     16 C16        -9.5996   -0.9593   58.1575 C.3     1  ZINC001271977984    0.1200
     17 N17        -8.9376    0.1853   58.7885 N.am    1  ZINC001271977984   -0.6000
     18 C18        -8.3239    1.2252   57.9588 C.3     1  ZINC001271977984    0.0800
     19 C19        -8.8932    0.2815   60.1320 C.2     1  ZINC001271977984    0.6000
     20 O20        -9.4026   -0.5817   60.8206 O.2     1  ZINC001271977984   -0.5300
     21 C21        -8.2271    1.4333   60.7669 C.2     1  ZINC001271977984   -0.0800
     22 C22        -7.2890    1.3828   61.7515 C.2     1  ZINC001271977984    0.0200
     23 O23        -6.9511    2.6508   62.0355 O.3     1  ZINC001271977984   -0.2000
     24 C24        -7.6654    3.4625   61.2431 C.2     1  ZINC001271977984    0.1800
     25 N25        -8.4303    2.7466   60.4746 N.2     1  ZINC001271977984   -0.4600
     26 H26       -13.0718   -0.9014   55.1728 H       1  ZINC001271977984    0.0800
     27 H27       -11.9886    0.5081   55.2636 H       1  ZINC001271977984    0.0800
     28 H28       -12.4891   -0.1292   53.6788 H       1  ZINC001271977984    0.0700
     29 H29        -6.4251   -1.2974   51.9147 H       1  ZINC001271977984    0.1400
     30 H30        -5.2301    0.7755   51.3604 H       1  ZINC001271977984    0.1400
     31 H31        -6.1203    2.9530   52.0780 H       1  ZINC001271977984    0.1400
     32 H32        -8.2135    3.0798   53.3576 H       1  ZINC001271977984    0.1400
     33 H33        -9.2008   -3.0907   55.5260 H       1  ZINC001271977984    0.0300
     34 H34        -9.8491   -3.2817   57.1726 H       1  ZINC001271977984    0.0700
     35 H35       -10.8333   -3.7576   55.7679 H       1  ZINC001271977984    0.1100
     36 H36        -8.7628   -0.7975   56.1790 H       1  ZINC001271977984    0.0500
     37 H37       -10.1274    0.3017   56.4925 H       1  ZINC001271977984    0.0800
     38 H38       -10.5882   -1.0945   58.5962 H       1  ZINC001271977984    0.0900
     39 H39        -9.0042   -1.8579   58.3195 H       1  ZINC001271977984    0.0900
     40 H40        -9.0295    2.0448   57.8227 H       1  ZINC001271977984    0.0600
     41 H41        -7.4246    1.5976   58.4494 H       1  ZINC001271977984    0.0900
     42 H42        -8.0610    0.8068   56.9872 H       1  ZINC001271977984    0.0700
     43 H43        -6.8922    0.4925   62.2163 H       1  ZINC001271977984    0.2300
     44 H44        -7.6112    4.5412   61.2415 H       1  ZINC001271977984    0.2600
@<TRIPOS>BOND
     1     1     2    1
     2     1    26    1
     3     1    27    1
     4     1    28    1
     5     2     3    1
     6     2     4    1
     7     2    13    1
     8     4    12    1
     9     4     5    2
    10     5     6    1
    11     6    11   ar
    12     6     7   ar
    13     7     8   ar
    14     7    29    1
    15     8     9   ar
    16     8    30    1
    17     9    10   ar
    18     9    31    1
    19    10    11   ar
    20    10    32    1
    21    11    12    1
    22    13    14    1
    23    13    15    1
    24    14    33    1
    25    14    34    1
    26    14    35    1
    27    15    16    1
    28    15    36    1
    29    15    37    1
    30    16    17    1
    31    16    38    1
    32    16    39    1
    33    17    18    1
    34    17    19   am
    35    18    40    1
    36    18    41    1
    37    18    42    1
    38    19    20    2
    39    19    21    1
    40    21    25    1
    41    21    22    2
    42    22    23    1
    43    22    43    1
    44    23    24    1
    45    24    25    2
    46    24    44    1
@<TRIPOS>SUBSTRUCTURE
     1 ZINC001271977984        1 TEMP              0 ****  ****    0 ROOT


##########                                Name:    ZINC001272744746
##########                DOCK_Rotatable_Bonds:                   6
##########                         Heavy_Atoms:                  25
##########                    Molecular_Weight:             348.417
##########                DOCK_Rotatable_Bonds:                   6
##########                       Formal_Charge:           0.0299999
##########                     HBond_Acceptors:                   6
##########                        HBond_Donors:                   1
##########                         Heavy_Atoms:                  25
##########                          Grid_Score:          -25.778419
##########                     Grid_vdw_energy:          -24.165266
##########                      Grid_es_energy:           -1.613153
##########           Internal_energy_repulsive:           71.566635

@<TRIPOS>MOLECULE
ZINC001272744746
 50 52 1 0 0
SMALL
USER_CHARGES


@<TRIPOS>ATOM
      1 C1        -16.6587   -2.8327   56.0261 C.2     1  ZINC001272744746   -0.1700
      2 C2        -16.5352   -2.2896   57.2117 C.2     1  ZINC001272744746   -0.1700
      3 C3        -15.5111   -2.8212   58.1812 C.3     1  ZINC001272744746    0.1500
      4 N4        -14.3538   -1.9234   58.2099 N.am    1  ZINC001272744746   -0.6100
      5 C5        -13.1552   -2.0890   57.3768 C.3     1  ZINC001272744746    0.0700
      6 C6        -12.4305   -0.7332   57.4319 C.3     1  ZINC001272744746    0.1100
      7 C7        -12.9295   -0.1438   58.7638 C.3     1  ZINC001272744746   -0.1500
      8 C8        -14.2544   -0.8384   58.9985 C.2     1  ZINC001272744746    0.5200
      9 O9        -15.0996   -0.4739   59.7882 O.2     1  ZINC001272744746   -0.5200
     10 C10       -12.8543    0.1483   56.2652 C.3     1  ZINC001272744746   -0.1000
     11 C11       -12.3627   -0.4739   54.9537 C.3     1  ZINC001272744746   -0.1200
     12 C12       -10.8450   -0.6633   55.0281 C.3     1  ZINC001272744746   -0.1200
     13 C13       -10.5017   -1.5540   56.2240 C.3     1  ZINC001272744746    0.0500
     14 N14       -10.9832   -0.9213   57.4603 N.3     1  ZINC001272744746   -0.5100
     15 C15       -10.5759   -1.6950   58.6408 C.3     1  ZINC001272744746    0.0800
     16 C16        -9.6625   -0.8585   59.4991 C.ar    1  ZINC001272744746   -0.0200
     17 C17        -8.4738   -0.3814   58.9794 C.ar    1  ZINC001272744746   -0.1700
     18 C18        -7.6314    0.3875   59.7644 C.ar    1  ZINC001272744746    0.1200
     19 F19        -6.4700    0.8527   59.2544 F       1  ZINC001272744746   -0.1200
     20 C20        -7.9807    0.6804   61.0744 C.ar    1  ZINC001272744746    0.0400
     21 O21        -7.1550    1.4362   61.8476 O.3     1  ZINC001272744746   -0.4700
     22 C22        -9.1775    0.1999   61.5956 C.ar    1  ZINC001272744746    0.1300
     23 O23        -9.5246    0.4847   62.8793 O.3     1  ZINC001272744746   -0.3000
     24 C24        -8.6129    1.2840   63.6357 C.3     1  ZINC001272744746    0.0200
     25 C25       -10.0180   -0.5651   60.8026 C.ar    1  ZINC001272744746   -0.1800
     26 H26       -16.0265   -3.6614   55.7432 H       1  ZINC001272744746    0.1000
     27 H27       -17.3955   -2.4546   55.3329 H       1  ZINC001272744746    0.1000
     28 H28       -17.1674   -1.4609   57.4946 H       1  ZINC001272744746    0.1100
     29 H29       -15.9500   -2.8804   59.1771 H       1  ZINC001272744746    0.0900
     30 H30       -15.1926   -3.8145   57.8648 H       1  ZINC001272744746    0.0800
     31 H31       -12.5182   -2.8745   57.7833 H       1  ZINC001272744746    0.0700
     32 H32       -13.4381   -2.3245   56.3507 H       1  ZINC001272744746    0.0900
     33 H33       -12.2283   -0.3687   59.5675 H       1  ZINC001272744746    0.1100
     34 H34       -13.0764    0.9326   58.6739 H       1  ZINC001272744746    0.1100
     35 H35       -13.9412    0.2273   56.2453 H       1  ZINC001272744746    0.0700
     36 H36       -12.4192    1.1407   56.3825 H       1  ZINC001272744746    0.0800
     37 H37       -12.8440   -1.4408   54.8061 H       1  ZINC001272744746    0.0600
     38 H38       -12.6074    0.1872   54.1224 H       1  ZINC001272744746    0.0700
     39 H39       -10.4921   -1.1344   54.1107 H       1  ZINC001272744746    0.0700
     40 H40       -10.3631    0.3071   55.1473 H       1  ZINC001272744746    0.0700
     41 H41       -10.9806   -2.5256   56.1028 H       1  ZINC001272744746    0.0400
     42 H42        -9.4212   -1.6861   56.2805 H       1  ZINC001272744746    0.0900
     43 H43       -11.4596   -1.9738   59.2150 H       1  ZINC001272744746    0.1000
     44 H44       -10.0511   -2.5954   58.3218 H       1  ZINC001272744746    0.0600
     45 H45        -8.2014   -0.6093   57.9595 H       1  ZINC001272744746    0.1400
     46 H46        -6.3395    1.7071   61.4040 H       1  ZINC001272744746    0.3900
     47 H47        -8.4837    2.2494   63.1462 H       1  ZINC001272744746    0.0600
     48 H48        -9.0095    1.4359   64.6396 H       1  ZINC001272744746    0.1100
     49 H49        -7.6503    0.7766   63.6982 H       1  ZINC001272744746    0.0600
     50 H50       -10.9477   -0.9390   61.2056 H       1  ZINC001272744746    0.1400
@<TRIPOS>BOND
     1     1     2    2
     2     1    26    1
     3     1    27    1
     4     2     3    1
     5     2    28    1
     6     3     4    1
     7     3    29    1
     8     3    30    1
     9     4     8   am
    10     4     5    1
    11     5     6    1
    12     5    31    1
    13     5    32    1
    14     6    14    1
    15     6     7    1
    16     6    10    1
    17     7     8    1
    18     7    33    1
    19     7    34    1
    20     8     9    2
    21    10    11    1
    22    10    35    1
    23    10    36    1
    24    11    12    1
    25    11    37    1
    26    11    38    1
    27    12    13    1
    28    12    39    1
    29    12    40    1
    30    13    14    1
    31    13    41    1
    32    13    42    1
    33    14    15    1
    34    15    16    1
    35    15    43    1
    36    15    44    1
    37    16    25   ar
    38    16    17   ar
    39    17    18   ar
    40    17    45    1
    41    18    19    1
    42    18    20   ar
    43    20    21    1
    44    20    22   ar
    45    21    46    1
    46    22    23    1
    47    22    25   ar
    48    23    24    1
    49    24    47    1
    50    24    48    1
    51    24    49    1
    52    25    50    1
@<TRIPOS>SUBSTRUCTURE
     1 ZINC001272744746        1 TEMP              0 ****  ****    0 ROOT


##########                                Name:    ZINC000581017854
##########                DOCK_Rotatable_Bonds:                   6
##########                         Heavy_Atoms:                  24
##########                    Molecular_Weight:             330.334
##########                DOCK_Rotatable_Bonds:                   6
##########                       Formal_Charge:           0.0099998
##########                     HBond_Acceptors:                   6
##########                        HBond_Donors:                   2
##########                         Heavy_Atoms:                  24
##########                          Grid_Score:          -25.772028
##########                     Grid_vdw_energy:          -26.662319
##########                      Grid_es_energy:            0.890290
##########           Internal_energy_repulsive:            5.127772

@<TRIPOS>MOLECULE
ZINC000581017854
 40 42 1 0 0
SMALL
USER_CHARGES


@<TRIPOS>ATOM
      1 C1         -6.1584    1.3056   52.7913 C.3     1  ZINC000581017854   -0.1600
      2 C2         -5.7112    2.4266   51.8508 C.3     1  ZINC000581017854    0.1500
      3 H3         -5.5647    2.0233   50.8488 H       1  ZINC000581017854    0.1100
      4 C4         -6.7841    3.5166   51.8100 C.3     1  ZINC000581017854    0.0500
      5 O5         -7.6405    3.3002   50.6866 O.3     1  ZINC000581017854   -0.3100
      6 C6         -8.9344    3.6963   50.8119 C.ar    1  ZINC000581017854    0.1600
      7 C7         -9.7785    3.0419   51.6973 C.ar    1  ZINC000581017854   -0.2200
      8 C8        -11.0939    3.4456   51.8239 C.ar    1  ZINC000581017854   -0.0500
      9 C9        -11.5705    4.5006   51.0690 C.ar    1  ZINC000581017854   -0.1900
     10 C10       -10.7307    5.1560   50.1836 C.ar    1  ZINC000581017854    0.1400
     11 F11       -11.1985    6.1871   49.4465 F       1  ZINC000581017854   -0.1300
     12 C12        -9.4113    4.7591   50.0589 C.ar    1  ZINC000581017854   -0.1900
     13 N13        -4.4526    2.9981   52.3361 N.am    1  ZINC000581017854   -0.7300
     14 C14        -3.2830    2.6171   51.7856 C.2     1  ZINC000581017854    0.5900
     15 O15        -3.2721    1.7974   50.8865 O.2     1  ZINC000581017854   -0.5400
     16 C16        -2.0209    3.1915   52.2710 C.2     1  ZINC000581017854   -0.2200
     17 C17        -1.8660    4.0587   53.3117 C.2     1  ZINC000581017854    0.1100
     18 N18        -0.5546    4.3664   53.4607 N.pl3   1  ZINC000581017854   -0.5700
     19 C19         0.2049    3.7074   52.5160 C.ar    1  ZINC000581017854    0.1100
     20 C20         1.5681    3.6794   52.2420 C.ar    1  ZINC000581017854   -0.1600
     21 C21         2.0457    2.9052   51.2042 C.ar    1  ZINC000581017854    0.1200
     22 F22         3.3707    2.8806   50.9418 F       1  ZINC000581017854   -0.1400
     23 C23         1.1759    2.1504   50.4273 C.ar    1  ZINC000581017854   -0.1700
     24 C24        -0.1774    2.1665   50.6848 C.ar    1  ZINC000581017854   -0.0300
     25 C25        -0.6713    2.9389   51.7327 C.ar    1  ZINC000581017854   -0.0700
     26 H26        -7.0949    0.8804   52.4302 H       1  ZINC000581017854    0.0700
     27 H27        -5.3941    0.5292   52.8203 H       1  ZINC000581017854    0.0700
     28 H28        -6.3050    1.7089   53.7933 H       1  ZINC000581017854    0.0700
     29 H29        -7.3722    3.4820   52.7271 H       1  ZINC000581017854    0.0700
     30 H30        -6.3072    4.4927   51.7206 H       1  ZINC000581017854    0.0800
     31 H31        -9.4076    2.2169   52.2874 H       1  ZINC000581017854    0.1400
     32 H32       -11.7506    2.9357   52.5133 H       1  ZINC000581017854    0.1400
     33 H33       -12.5991    4.8142   51.1693 H       1  ZINC000581017854    0.1400
     34 H34        -8.7560    5.2700   49.3690 H       1  ZINC000581017854    0.1400
     35 H35        -4.4611    3.6507   53.0536 H       1  ZINC000581017854    0.4000
     36 H36        -2.6677    4.4426   53.9250 H       1  ZINC000581017854    0.1800
     37 H37        -0.2000    4.9659   54.1359 H       1  ZINC000581017854    0.4200
     38 H38         2.2520    4.2631   52.8403 H       1  ZINC000581017854    0.1400
     39 H39         1.5622    1.5489   49.6177 H       1  ZINC000581017854    0.1400
     40 H40        -0.8518    1.5792   50.0793 H       1  ZINC000581017854    0.1500
@<TRIPOS>BOND
     1     1     2    1
     2     1    26    1
     3     1    27    1
     4     1    28    1
     5     2     3    1
     6     2     4    1
     7     2    13    1
     8     4     5    1
     9     4    29    1
    10     4    30    1
    11     5     6    1
    12     6    12   ar
    13     6     7   ar
    14     7     8   ar
    15     7    31    1
    16     8     9   ar
    17     8    32    1
    18     9    10   ar
    19     9    33    1
    20    10    11    1
    21    10    12   ar
    22    12    34    1
    23    13    14   am
    24    13    35    1
    25    14    15    2
    26    14    16    1
    27    16    25    1
    28    16    17    2
    29    17    18    1
    30    17    36    1
    31    18    19    1
    32    18    37    1
    33    19    25   ar
    34    19    20   ar
    35    20    21   ar
    36    20    38    1
    37    21    22    1
    38    21    23   ar
    39    23    24   ar
    40    23    39    1
    41    24    25   ar
    42    24    40    1
@<TRIPOS>SUBSTRUCTURE
     1 ZINC000581017854        1 TEMP              0 ****  ****    0 ROOT


##########                                Name:     oleObject15.pdb
##########                DOCK_Rotatable_Bonds:                   9
##########                         Heavy_Atoms:                  29
##########                    Molecular_Weight:             395.545
##########                DOCK_Rotatable_Bonds:                   9
##########                       Formal_Charge:         0.000700183
##########                     HBond_Acceptors:                   5
##########                        HBond_Donors:                   1
##########                         Heavy_Atoms:                  29
##########                          Grid_Score:          -25.746740
##########                     Grid_vdw_energy:          -25.744329
##########                      Grid_es_energy:           -0.002411
##########           Internal_energy_repulsive:            9.586466

@<TRIPOS>MOLECULE
oleObject15.pdb
 62 64 1 0 0
SMALL
NO_CHARGES


@<TRIPOS>ATOM
      1 O           4.7610   -4.5851   44.2947 O.3     1  UNL        -0.3745
      2 C           5.3652   -3.8562   45.3869 C.3     1  UNL         0.0600
      3 C           4.2745   -3.5538   46.4406 C.3     1  UNL         0.0217
      4 N           4.7501   -2.7908   47.6182 N.4     1  UNL        -0.3010
      5 C           5.3494   -1.4741   47.3013 C.3     1  UNL        -0.0010
      6 C           5.9407   -0.7952   48.5559 C.3     1  UNL        -0.0289
      7 C           4.9201   -0.6783   49.7135 C.3     1  UNL         0.0382
      8 C           4.2440   -2.0496   49.9661 C.3     1  UNL        -0.0289
      9 C           3.7197   -2.7226   48.6760 C.3     1  UNL        -0.0010
     10 C           3.8893    0.4488   49.4567 C.2     1  UNL         0.2156
     11 O           2.7251    0.3473   49.7989 O.2     1  UNL        -0.2774
     12 N           4.2974    1.6354   48.8608 N.am    1  UNL        -0.3025
     13 C           3.4693    2.8126   48.5384 C.3     1  UNL         0.0900
     14 C           3.4118    3.8296   49.6768 C.ar    1  UNL        -0.0217
     15 C           4.3541    4.8737   49.7699 C.ar    1  UNL        -0.0568
     16 C           4.2942    5.7928   50.8302 C.ar    1  UNL        -0.0619
     17 C           3.2901    5.6779   51.8041 C.ar    1  UNL        -0.0622
     18 C           2.3443    4.6445   51.7152 C.ar    1  UNL        -0.0619
     19 C           2.4043    3.7257   50.6547 C.ar    1  UNL        -0.0568
     20 C           3.9176    3.4793   47.2411 C.ar    1  UNL         0.0652
     21 C           5.2630    3.4506   46.8193 C.ar    1  UNL        -0.0383
     22 C           5.6152    4.0902   45.6200 C.ar    1  UNL        -0.0588
     23 C           4.6103    4.7375   44.8846 C.ar    1  UNL        -0.0438
     24 C           3.2947    4.7193   45.3784 C.ar    1  UNL         0.0272
     25 N           2.9546    4.1057   46.5300 N.ar    1  UNL        -0.2590
     26 C           5.5756   -4.9930   43.1700 C.3     1  UNL         0.0599
     27 C           6.7125   -5.9236   43.6618 C.3     1  UNL        -0.0364
     28 C           4.6167   -5.7748   42.2438 C.3     1  UNL        -0.0364
     29 C           6.1290   -3.7466   42.4349 C.3     1  UNL        -0.0364
     30 H           5.7816   -2.9071   45.0285 H       1  UNL         0.0581
     31 H           6.1751   -4.4294   45.8512 H       1  UNL         0.0581
     32 H           3.8626   -4.5139   46.7768 H       1  UNL         0.0455
     33 H           3.4605   -3.0029   45.9526 H       1  UNL         0.0455
     34 H           4.5905   -0.8185   46.8553 H       1  UNL         0.0431
     35 H           6.1614   -1.5879   46.5736 H       1  UNL         0.0431
     36 H           6.3305    0.1941   48.2897 H       1  UNL         0.0288
     37 H           6.7990   -1.3876   48.8988 H       1  UNL         0.0288
     38 H           5.4823   -0.4482   50.6223 H       1  UNL         0.0402
     39 H           3.4253   -1.9383   50.6883 H       1  UNL         0.0288
     40 H           4.9789   -2.7219   50.4277 H       1  UNL         0.0288
     41 H           2.8476   -2.1699   48.3051 H       1  UNL         0.0431
     42 H           3.3805   -3.7357   48.9278 H       1  UNL         0.0431
     43 H           5.2946    1.7304   48.7172 H       1  UNL         0.1504
     44 H           2.4513    2.4430   48.3607 H       1  UNL         0.0624
     45 H           5.1407    4.9694   49.0272 H       1  UNL         0.0626
     46 H           5.0270    6.5918   50.8976 H       1  UNL         0.0623
     47 H           3.2440    6.3884   52.6246 H       1  UNL         0.0623
     48 H           1.5650    4.5557   52.4667 H       1  UNL         0.0623
     49 H           1.6667    2.9302   50.5943 H       1  UNL         0.0626
     50 H           6.0209    2.9434   47.4086 H       1  UNL         0.0643
     51 H           6.6433    4.0846   45.2695 H       1  UNL         0.0624
     52 H           4.8441    5.2433   43.9524 H       1  UNL         0.0639
     53 H           2.4882    5.2113   44.8360 H       1  UNL         0.0840
     54 H           6.3126   -6.7282   44.2921 H       1  UNL         0.0260
     55 H           7.4624   -5.3732   44.2427 H       1  UNL         0.0260
     56 H           7.2303   -6.3856   42.8118 H       1  UNL         0.0260
     57 H           4.1918   -6.6426   42.7646 H       1  UNL         0.0260
     58 H           5.1402   -6.1383   41.3504 H       1  UNL         0.0260
     59 H           3.7857   -5.1379   41.9144 H       1  UNL         0.0260
     60 H           6.8730   -3.2180   43.0435 H       1  UNL         0.0260
     61 H           5.3206   -3.0445   42.1937 H       1  UNL         0.0260
     62 H           6.6172   -4.0356   41.4956 H       1  UNL         0.0260
@<TRIPOS>BOND
     1     1     2    1
     2     1    26    1
     3     2     3    1
     4     2    30    1
     5     2    31    1
     6     3     4    1
     7     3    32    1
     8     3    33    1
     9     4     5    1
    10     4     9    1
    11     5     6    1
    12     5    34    1
    13     5    35    1
    14     6     7    1
    15     6    36    1
    16     6    37    1
    17     7     8    1
    18     7    10    1
    19     7    38    1
    20     8     9    1
    21     8    39    1
    22     8    40    1
    23     9    41    1
    24     9    42    1
    25    10    11    2
    26    10    12   am
    27    12    13    1
    28    12    43    1
    29    13    14    1
    30    13    20    1
    31    13    44    1
    32    14    15   ar
    33    14    19   ar
    34    15    16   ar
    35    15    45    1
    36    16    17   ar
    37    16    46    1
    38    17    18   ar
    39    17    47    1
    40    18    19   ar
    41    18    48    1
    42    19    49    1
    43    20    21   ar
    44    20    25   ar
    45    21    22   ar
    46    21    50    1
    47    22    23   ar
    48    22    51    1
    49    23    24   ar
    50    23    52    1
    51    24    25   ar
    52    24    53    1
    53    26    27    1
    54    26    28    1
    55    26    29    1
    56    27    54    1
    57    27    55    1
    58    27    56    1
    59    28    57    1
    60    28    58    1
    61    28    59    1
    62    29    60    1
    63    29    61    1
    64    29    62    1
@<TRIPOS>SUBSTRUCTURE
     1 UNL         1 TEMP              0 ****  ****    0 ROOT


##########                                Name:    ZINC000517001504
##########                DOCK_Rotatable_Bonds:                   5
##########                         Heavy_Atoms:                  29
##########                    Molecular_Weight:             403.401
##########                DOCK_Rotatable_Bonds:                   5
##########                       Formal_Charge:          -0.0200002
##########                     HBond_Acceptors:                   7
##########                        HBond_Donors:                   0
##########                         Heavy_Atoms:                  29
##########                          Grid_Score:          -25.715208
##########                     Grid_vdw_energy:          -24.788652
##########                      Grid_es_energy:           -0.926555
##########           Internal_energy_repulsive:           32.181988

@<TRIPOS>MOLECULE
ZINC000517001504
 49 52 1 0 0
SMALL
USER_CHARGES


@<TRIPOS>ATOM
      1 O1         -9.4763    3.8389   60.7671 O.2     1  ZINC000517001504   -0.5200
      2 C2         -9.3540    2.6514   60.9808 C.2     1  ZINC000517001504    0.5400
      3 N3         -8.7470    1.8622   60.0723 N.am    1  ZINC000517001504   -0.6100
      4 C4         -8.5816    0.4198   60.3119 C.3     1  ZINC000517001504    0.0600
      5 C5         -7.1137    0.0538   60.0648 C.3     1  ZINC000517001504    0.0500
      6 O6         -6.7196    0.5326   58.7767 O.3     1  ZINC000517001504   -0.3700
      7 C7         -6.7797    1.9542   58.6373 C.3     1  ZINC000517001504    0.1200
      8 H8         -6.1545    2.4214   59.3982 H       1  ZINC000517001504    0.0800
      9 C9         -6.2854    2.3470   57.2689 C.ar    1  ZINC000517001504   -0.0600
     10 C10        -5.1387    3.1083   57.1404 C.ar    1  ZINC000517001504   -0.0900
     11 C11        -4.6854    3.4686   55.8852 C.ar    1  ZINC000517001504   -0.0700
     12 C12        -5.3784    3.0672   54.7585 C.ar    1  ZINC000517001504   -0.1800
     13 C13        -4.8844    3.4604   53.3901 C.3     1  ZINC000517001504    0.5100
     14 F14        -5.6867    4.4878   52.8822 F       1  ZINC000517001504   -0.1800
     15 F15        -3.5609    3.9041   53.4818 F       1  ZINC000517001504   -0.1800
     16 F16        -4.9474    2.3542   52.5360 F       1  ZINC000517001504   -0.1800
     17 C17        -6.5243    2.3048   54.8869 C.ar    1  ZINC000517001504   -0.0700
     18 C18        -6.9755    1.9412   56.1420 C.ar    1  ZINC000517001504   -0.1000
     19 C19        -8.2356    2.4165   58.8088 C.3     1  ZINC000517001504    0.0900
     20 C20        -9.8752    2.0592   62.2647 C.3     1  ZINC000517001504   -0.0600
     21 C21        -8.7753    1.6140   63.1937 C.ar    1  ZINC000517001504   -0.0700
     22 C22        -9.0772    0.8537   64.3080 C.ar    1  ZINC000517001504   -0.1200
     23 C23        -8.0681    0.4453   65.1601 C.ar    1  ZINC000517001504   -0.1100
     24 C24        -6.7573    0.7969   64.8978 C.ar    1  ZINC000517001504   -0.1100
     25 C25        -6.4554    1.5565   63.7830 C.ar    1  ZINC000517001504   -0.1100
     26 C26        -7.4637    1.9612   62.9285 C.ar    1  ZINC000517001504   -0.1000
     27 C27       -10.9531    2.9182   62.9479 C.3     1  ZINC000517001504   -0.1600
     28 C28       -11.9669    2.1433   62.1297 C.2     1  ZINC000517001504    0.3600
     29 O29       -13.0828    2.3474   61.7158 O.2     1  ZINC000517001504   -0.4100
     30 C30       -10.9727    1.0015   62.0560 C.3     1  ZINC000517001504   -0.1900
     31 H31        -8.8500    0.1857   61.3421 H       1  ZINC000517001504    0.1000
     32 H32        -9.2198   -0.1413   59.6293 H       1  ZINC000517001504    0.0800
     33 H33        -6.4898    0.5141   60.8309 H       1  ZINC000517001504    0.0600
     34 H34        -6.9973   -1.0293   60.1019 H       1  ZINC000517001504    0.1100
     35 H35        -4.5973    3.4218   58.0207 H       1  ZINC000517001504    0.1400
     36 H36        -3.7899    4.0640   55.7849 H       1  ZINC000517001504    0.1400
     37 H37        -7.0655    1.9909   54.0066 H       1  ZINC000517001504    0.1400
     38 H38        -7.8708    1.3455   56.2422 H       1  ZINC000517001504    0.1400
     39 H39        -8.8360    2.0559   57.9736 H       1  ZINC000517001504    0.0800
     40 H40        -8.2730    3.5052   58.8454 H       1  ZINC000517001504    0.1100
     41 H41       -10.1013    0.5790   64.5130 H       1  ZINC000517001504    0.1300
     42 H42        -8.3041   -0.1481   66.0311 H       1  ZINC000517001504    0.1300
     43 H43        -5.9691    0.4785   65.5638 H       1  ZINC000517001504    0.1300
     44 H44        -5.4312    1.8315   63.5780 H       1  ZINC000517001504    0.1300
     45 H45        -7.2278    2.5546   62.0575 H       1  ZINC000517001504    0.1200
     46 H46       -11.0340    2.7467   64.0213 H       1  ZINC000517001504    0.1300
     47 H47       -10.8986    3.9757   62.6895 H       1  ZINC000517001504    0.1100
     48 H48       -10.9339    0.5174   61.0801 H       1  ZINC000517001504    0.1000
     49 H49       -11.0591    0.2922   62.8791 H       1  ZINC000517001504    0.1400
@<TRIPOS>BOND
     1     1     2    2
     2     2     3   am
     3     2    20    1
     4     3    19    1
     5     3     4    1
     6     4     5    1
     7     4    31    1
     8     4    32    1
     9     5     6    1
    10     5    33    1
    11     5    34    1
    12     6     7    1
    13     7     8    1
    14     7     9    1
    15     7    19    1
    16     9    18   ar
    17     9    10   ar
    18    10    11   ar
    19    10    35    1
    20    11    12   ar
    21    11    36    1
    22    12    13    1
    23    12    17   ar
    24    13    14    1
    25    13    15    1
    26    13    16    1
    27    17    18   ar
    28    17    37    1
    29    18    38    1
    30    19    39    1
    31    19    40    1
    32    20    30    1
    33    20    21    1
    34    20    27    1
    35    21    26   ar
    36    21    22   ar
    37    22    23   ar
    38    22    41    1
    39    23    24   ar
    40    23    42    1
    41    24    25   ar
    42    24    43    1
    43    25    26   ar
    44    25    44    1
    45    26    45    1
    46    27    28    1
    47    27    46    1
    48    27    47    1
    49    28    29    2
    50    28    30    1
    51    30    48    1
    52    30    49    1
@<TRIPOS>SUBSTRUCTURE
     1 ZINC000517001504        1 TEMP              0 ****  ****    0 ROOT


##########                                Name:    ZINC000076573199
##########                DOCK_Rotatable_Bonds:                  10
##########                         Heavy_Atoms:                  24
##########                    Molecular_Weight:             333.431
##########                DOCK_Rotatable_Bonds:                  10
##########                       Formal_Charge:          -0.0200009
##########                     HBond_Acceptors:                   6
##########                        HBond_Donors:                   3
##########                         Heavy_Atoms:                  24
##########                          Grid_Score:          -25.694195
##########                     Grid_vdw_energy:          -25.262672
##########                      Grid_es_energy:           -0.431523
##########           Internal_energy_repulsive:           18.684383

@<TRIPOS>MOLECULE
ZINC000076573199
 51 51 1 0 0
SMALL
USER_CHARGES


@<TRIPOS>ATOM
      1 C1         -6.2815    2.3129   58.7803 C.3     1  ZINC000076573199   -0.1500
      2 C2         -6.7121    0.9666   59.3662 C.3     1  ZINC000076573199   -0.1200
      3 C3         -7.8781    1.1809   60.3335 C.3     1  ZINC000076573199   -0.1000
      4 H4         -8.5826    1.8915   59.9014 H       1  ZINC000076573199    0.0700
      5 C5         -7.3469    1.7309   61.6586 C.3     1  ZINC000076573199   -0.1500
      6 C6         -8.5862   -0.1524   60.5819 C.3     1  ZINC000076573199   -0.1200
      7 C7         -9.8133   -0.2551   59.6739 C.3     1  ZINC000076573199    0.1400
      8 H8        -10.0855   -1.3030   59.5480 H       1  ZINC000076573199    0.1000
      9 C9        -10.9816    0.5028   60.3076 C.3     1  ZINC000076573199   -0.1700
     10 N10        -9.5037    0.3294   58.3667 N.am    1  ZINC000076573199   -0.6900
     11 C11       -10.1309   -0.1204   57.2617 C.2     1  ZINC000076573199    0.5100
     12 O12       -10.9510   -1.0107   57.3495 O.2     1  ZINC000076573199   -0.5100
     13 C13        -9.8166    0.4767   55.9293 C.2     1  ZINC000076573199    0.5100
     14 O14       -10.2272   -0.0504   54.9159 O.2     1  ZINC000076573199   -0.5000
     15 N15        -9.0770    1.6007   55.8521 N.am    1  ZINC000076573199   -0.6400
     16 C16        -8.7830    2.1593   54.6056 C.ar    1  ZINC000076573199    0.1500
     17 C17        -9.5709    3.1863   54.1002 C.ar    1  ZINC000076573199   -0.1300
     18 C18        -9.2803    3.7392   52.8678 C.ar    1  ZINC000076573199   -0.0800
     19 C19        -8.2062    3.2737   52.1343 C.ar    1  ZINC000076573199   -0.1200
     20 C20        -7.8928    3.8802   50.7908 C.3     1  ZINC000076573199   -0.1100
     21 C21        -7.4143    2.2470   52.6340 C.ar    1  ZINC000076573199    0.1600
     22 N22        -6.3267    1.7762   51.8902 N.am    1  ZINC000076573199   -0.6700
     23 C23        -5.1818    2.4860   51.8472 C.2     1  ZINC000076573199    0.5100
     24 C24        -4.0104    1.9791   51.0461 C.3     1  ZINC000076573199   -0.1700
     25 O25        -5.0943    3.5330   52.4533 O.2     1  ZINC000076573199   -0.5200
     26 C26        -7.6998    1.6930   53.8731 C.ar    1  ZINC000076573199   -0.1400
     27 H27        -5.9678    2.9761   59.5864 H       1  ZINC000076573199    0.0600
     28 H28        -5.4509    2.1602   58.0913 H       1  ZINC000076573199    0.0500
     29 H29        -7.1191    2.7612   58.2461 H       1  ZINC000076573199    0.0500
     30 H30        -7.0258    0.3033   58.5602 H       1  ZINC000076573199    0.0600
     31 H31        -5.8745    0.5183   59.9005 H       1  ZINC000076573199    0.0600
     32 H32        -6.7071    0.9855   62.1311 H       1  ZINC000076573199    0.0600
     33 H33        -6.7713    2.6374   61.4712 H       1  ZINC000076573199    0.0600
     34 H34        -8.1837    1.9617   62.3178 H       1  ZINC000076573199    0.0500
     35 H35        -7.9028   -0.9730   60.3634 H       1  ZINC000076573199    0.0800
     36 H36        -8.8998   -0.2086   61.6243 H       1  ZINC000076573199    0.0700
     37 H37       -11.8558    0.4296   59.6607 H       1  ZINC000076573199    0.0600
     38 H38       -11.2120    0.0679   61.2802 H       1  ZINC000076573199    0.0700
     39 H39       -10.7094    1.5507   60.4335 H       1  ZINC000076573199    0.0600
     40 H40        -8.8474    1.0402   58.2963 H       1  ZINC000076573199    0.4100
     41 H41        -8.7489    2.0219   56.6620 H       1  ZINC000076573199    0.4200
     42 H42       -10.4115    3.5522   54.6710 H       1  ZINC000076573199    0.1400
     43 H43        -9.8944    4.5370   52.4769 H       1  ZINC000076573199    0.1300
     44 H44        -7.2073    4.7175   50.9213 H       1  ZINC000076573199    0.0700
     45 H45        -7.4302    3.1282   50.1517 H       1  ZINC000076573199    0.0600
     46 H46        -8.8141    4.2335   50.3279 H       1  ZINC000076573199    0.0700
     47 H47        -6.3966    0.9389   51.4054 H       1  ZINC000076573199    0.4100
     48 H48        -4.3001    1.8831   49.9997 H       1  ZINC000076573199    0.0900
     49 H49        -3.1812    2.6815   51.1305 H       1  ZINC000076573199    0.1000
     50 H50        -3.7026    1.0059   51.4286 H       1  ZINC000076573199    0.0900
     51 H51        -7.0857    0.8949   54.2636 H       1  ZINC000076573199    0.1400
@<TRIPOS>BOND
     1     1     2    1
     2     1    27    1
     3     1    28    1
     4     1    29    1
     5     2     3    1
     6     2    30    1
     7     2    31    1
     8     3     4    1
     9     3     5    1
    10     3     6    1
    11     5    32    1
    12     5    33    1
    13     5    34    1
    14     6     7    1
    15     6    35    1
    16     6    36    1
    17     7     8    1
    18     7     9    1
    19     7    10    1
    20     9    37    1
    21     9    38    1
    22     9    39    1
    23    10    11   am
    24    10    40    1
    25    11    12    2
    26    11    13    1
    27    13    14    2
    28    13    15   am
    29    15    16    1
    30    15    41    1
    31    16    26   ar
    32    16    17   ar
    33    17    18   ar
    34    17    42    1
    35    18    19   ar
    36    18    43    1
    37    19    20    1
    38    19    21   ar
    39    20    44    1
    40    20    45    1
    41    20    46    1
    42    21    22    1
    43    21    26   ar
    44    22    23   am
    45    22    47    1
    46    23    24    1
    47    23    25    2
    48    24    48    1
    49    24    49    1
    50    24    50    1
    51    26    51    1
@<TRIPOS>SUBSTRUCTURE
     1 ZINC000076573199        1 TEMP              0 ****  ****    0 ROOT


##########                                Name:    ZINC001193456967
##########                DOCK_Rotatable_Bonds:                   3
##########                         Heavy_Atoms:                  27
##########                    Molecular_Weight:             392.451
##########                DOCK_Rotatable_Bonds:                   3
##########                       Formal_Charge:           0.0300002
##########                     HBond_Acceptors:                   8
##########                        HBond_Donors:                   0
##########                         Heavy_Atoms:                  27
##########                          Grid_Score:          -25.686600
##########                     Grid_vdw_energy:          -23.988077
##########                      Grid_es_energy:           -1.698522
##########           Internal_energy_repulsive:           36.359287

@<TRIPOS>MOLECULE
ZINC001193456967
 48 50 1 0 0
SMALL
USER_CHARGES


@<TRIPOS>ATOM
      1 C1         -7.9021    1.7428   64.8637 C.3     1  ZINC001193456967   -0.1400
      2 C2         -7.7687    1.6635   63.3647 C.ar    1  ZINC001193456967    0.0300
      3 C3         -7.1016    0.6004   62.7855 C.ar    1  ZINC001193456967   -0.1400
      4 C4         -6.9792    0.5277   61.4103 C.ar    1  ZINC001193456967    0.0300
      5 C5         -7.5242    1.5177   60.6147 C.ar    1  ZINC001193456967   -0.6900
      6 S6         -7.3677    1.4254   58.8621 S.o2    1  ZINC001193456967    2.7100
      7 O7         -7.7063    2.7111   58.3607 O.2     1  ZINC001193456967   -0.9300
      8 O8         -6.1214    0.7937   58.6033 O.2     1  ZINC001193456967   -0.9400
      9 N9         -8.5392    0.3883   58.3193 N.am    1  ZINC001193456967   -1.0000
     10 C10        -8.6761   -1.0290   58.7012 C.3     1  ZINC001193456967    0.1100
     11 C11        -9.4528   -1.6819   57.5307 C.3     1  ZINC001193456967   -0.1200
     12 C12       -10.4445   -0.5521   57.1464 C.3     1  ZINC001193456967   -0.0500
     13 H13       -11.3186   -0.5684   57.7974 H       1  ZINC001193456967    0.1000
     14 C14       -10.8558   -0.6723   55.7016 C.ar    1  ZINC001193456967   -0.0800
     15 C15        -9.9386   -1.0890   54.7548 C.ar    1  ZINC001193456967   -0.0800
     16 C16       -10.3147   -1.1995   53.4296 C.ar    1  ZINC001193456967   -0.1500
     17 C17       -11.6106   -0.8932   53.0503 C.ar    1  ZINC001193456967    0.1000
     18 F18       -11.9794   -1.0014   51.7551 F       1  ZINC001193456967   -0.1400
     19 C19       -12.5283   -0.4764   53.9996 C.ar    1  ZINC001193456967   -0.1500
     20 C20       -12.1514   -0.3713   55.3249 C.ar    1  ZINC001193456967   -0.0800
     21 C21        -9.6187    0.7303   57.3817 C.3     1  ZINC001193456967    0.1900
     22 C22       -10.5102    1.8209   57.9789 C.3     1  ZINC001193456967   -0.1800
     23 C23        -9.0173    1.2118   56.0598 C.3     1  ZINC001193456967   -0.1800
     24 C24        -8.1926    2.5804   61.1939 C.ar    1  ZINC001193456967    0.0400
     25 C25        -8.3183    2.6511   62.5685 C.ar    1  ZINC001193456967   -0.0600
     26 N26        -9.0339    3.7888   63.1888 N.pl3   1  ZINC001193456967    0.0200
     27 O27        -9.7304    3.6074   64.1714 O.2     1  ZINC001193456967   -0.1400
     28 O28        -8.9263    4.9063   62.7164 O.2     1  ZINC001193456967   -0.1500
     29 H29        -8.8604    1.3205   65.1660 H       1  ZINC001193456967    0.1100
     30 H30        -7.0937    1.1802   65.3307 H       1  ZINC001193456967    0.0900
     31 H31        -7.8487    2.7849   65.1786 H       1  ZINC001193456967    0.0800
     32 H32        -6.6758   -0.1732   63.4073 H       1  ZINC001193456967    0.1600
     33 H33        -6.4574   -0.3026   60.9578 H       1  ZINC001193456967    0.1600
     34 H34        -7.6940   -1.4896   58.8084 H       1  ZINC001193456967    0.0900
     35 H35        -9.2415   -1.1191   59.6287 H       1  ZINC001193456967    0.0700
     36 H36        -8.7856   -1.9150   56.7008 H       1  ZINC001193456967    0.0900
     37 H37        -9.9854   -2.5726   57.8639 H       1  ZINC001193456967    0.0900
     38 H38        -8.9278   -1.3279   55.0509 H       1  ZINC001193456967    0.1400
     39 H39        -9.5978   -1.5245   52.6900 H       1  ZINC001193456967    0.1400
     40 H40       -13.5394   -0.2369   53.7048 H       1  ZINC001193456967    0.1400
     41 H41       -12.8671   -0.0465   56.0656 H       1  ZINC001193456967    0.1300
     42 H42       -10.9183    1.4766   58.9292 H       1  ZINC001193456967    0.0700
     43 H43        -9.9206    2.7230   58.1422 H       1  ZINC001193456967    0.0600
     44 H44       -11.3266    2.0401   57.2908 H       1  ZINC001193456967    0.0800
     45 H45        -9.8094    1.3217   55.3190 H       1  ZINC001193456967    0.0800
     46 H46        -8.5268    2.1730   56.2125 H       1  ZINC001193456967    0.0900
     47 H47        -8.2875    0.4835   55.7061 H       1  ZINC001193456967    0.0700
     48 H48        -8.6188    3.3538   60.5722 H       1  ZINC001193456967    0.1600
@<TRIPOS>BOND
     1     1     2    1
     2     1    29    1
     3     1    30    1
     4     1    31    1
     5     2    25   ar
     6     2     3   ar
     7     3     4   ar
     8     3    32    1
     9     4     5   ar
    10     4    33    1
    11     5     6    1
    12     5    24   ar
    13     6     7    2
    14     6     8    2
    15     6     9   am
    16     9    21    1
    17     9    10    1
    18    10    11    1
    19    10    34    1
    20    10    35    1
    21    11    12    1
    22    11    36    1
    23    11    37    1
    24    12    13    1
    25    12    14    1
    26    12    21    1
    27    14    20   ar
    28    14    15   ar
    29    15    16   ar
    30    15    38    1
    31    16    17   ar
    32    16    39    1
    33    17    18    1
    34    17    19   ar
    35    19    20   ar
    36    19    40    1
    37    20    41    1
    38    21    22    1
    39    21    23    1
    40    22    42    1
    41    22    43    1
    42    22    44    1
    43    23    45    1
    44    23    46    1
    45    23    47    1
    46    24    25   ar
    47    24    48    1
    48    25    26    1
    49    26    27    2
    50    26    28    2
@<TRIPOS>SUBSTRUCTURE
     1 ZINC001193456967        1 TEMP              0 ****  ****    0 ROOT


##########                                Name:    ZINC001078748831
##########                DOCK_Rotatable_Bonds:                   6
##########                         Heavy_Atoms:                  23
##########                    Molecular_Weight:             333.417
##########                DOCK_Rotatable_Bonds:                   6
##########                       Formal_Charge:           0.0299999
##########                     HBond_Acceptors:                   9
##########                        HBond_Donors:                   2
##########                         Heavy_Atoms:                  23
##########                          Grid_Score:          -25.658901
##########                     Grid_vdw_energy:          -23.451845
##########                      Grid_es_energy:           -2.207055
##########           Internal_energy_repulsive:            4.927183

@<TRIPOS>MOLECULE
ZINC001078748831
 42 45 1 0 0
SMALL
USER_CHARGES


@<TRIPOS>ATOM
      1 C1          0.1419    1.9276   56.9774 C.3     1  ZINC001078748831    0.1000
      2 N2         -0.7728    3.0503   56.7556 N.pl3   1  ZINC001078748831   -0.1400
      3 N3         -0.5874    4.2391   57.2072 N.2     1  ZINC001078748831   -0.2900
      4 C4         -1.5862    5.0008   56.8308 C.2     1  ZINC001078748831    0.0400
      5 C5         -2.4420    4.1683   56.0821 C.2     1  ZINC001078748831   -0.0500
      6 C6         -3.7144    4.5466   55.4322 C.2     1  ZINC001078748831    0.6200
      7 O7         -4.0839    5.7046   55.4476 O.2     1  ZINC001078748831   -0.5200
      8 N8         -4.4650    3.6077   54.8226 N.am    1  ZINC001078748831   -0.7000
      9 C9         -5.7270    3.9825   54.1799 C.3     1  ZINC001078748831    0.1500
     10 H10        -5.6484    4.8974   53.5926 H       1  ZINC001078748831    0.1100
     11 C11        -6.9356    3.9624   55.1333 C.3     1  ZINC001078748831   -0.1800
     12 C12        -7.1307    2.4875   54.7375 C.3     1  ZINC001078748831    0.0800
     13 H13        -6.5863    1.7885   55.3724 H       1  ZINC001078748831    0.1000
     14 N14        -8.5373    2.1094   54.5467 N.3     1  ZINC001078748831   -0.6700
     15 C15        -8.9718    1.1591   55.5793 C.3     1  ZINC001078748831    0.1400
     16 C16        -9.7673    0.0507   54.9392 C.2     1  ZINC001078748831    0.0600
     17 N17        -9.3277   -0.6866   53.9575 N.2     1  ZINC001078748831   -0.5700
     18 S18       -10.4378   -1.7151   53.5786 S.3     1  ZINC001078748831    0.6800
     19 N19       -11.5194   -1.2909   54.6197 N.2     1  ZINC001078748831   -0.5700
     20 C20       -11.0438   -0.3051   55.3289 C.2     1  ZINC001078748831    0.0500
     21 C21        -6.4019    2.8306   53.4344 C.3     1  ZINC001078748831   -0.1000
     22 C22        -7.1736    3.0714   52.1365 C.3     1  ZINC001078748831   -0.1000
     23 C23        -5.9276    2.5468   51.4001 C.3     1  ZINC001078748831   -0.1400
     24 C24        -5.5788    1.7798   52.6885 C.3     1  ZINC001078748831   -0.1200
     25 N25        -1.8637    2.9768   56.0788 N.2     1  ZINC001078748831   -0.2500
     26 H26         0.8822    1.8986   56.1778 H       1  ZINC001078748831    0.1000
     27 H27         0.6466    2.0539   57.9352 H       1  ZINC001078748831    0.1100
     28 H28        -0.4224    0.9951   56.9842 H       1  ZINC001078748831    0.1100
     29 H29        -1.7248    6.0493   57.0497 H       1  ZINC001078748831    0.2100
     30 H30        -4.1695    2.6840   54.8093 H       1  ZINC001078748831    0.4100
     31 H31        -6.6672    4.1010   56.1807 H       1  ZINC001078748831    0.0700
     32 H32        -7.7523    4.6108   54.8158 H       1  ZINC001078748831    0.1000
     33 H33        -9.1321    2.9244   54.5322 H       1  ZINC001078748831    0.3500
     34 H34        -8.0980    0.7387   56.0769 H       1  ZINC001078748831    0.1000
     35 H35        -9.5928    1.6762   56.3109 H       1  ZINC001078748831    0.0600
     36 H36       -11.5878    0.1812   56.1251 H       1  ZINC001078748831    0.2000
     37 H37        -8.0497    2.4328   52.0236 H       1  ZINC001078748831    0.1000
     38 H38        -7.3862    4.1226   51.9425 H       1  ZINC001078748831    0.0700
     39 H39        -6.1609    1.8979   50.5559 H       1  ZINC001078748831    0.0700
     40 H40        -5.2089    3.3268   51.1489 H       1  ZINC001078748831    0.0800
     41 H41        -4.5173    1.7993   52.9355 H       1  ZINC001078748831    0.0700
     42 H42        -6.0066    0.7781   52.7308 H       1  ZINC001078748831    0.0900
@<TRIPOS>BOND
     1     1     2    1
     2     1    26    1
     3     1    27    1
     4     1    28    1
     5     2    25    1
     6     2     3    1
     7     3     4    2
     8     4     5    1
     9     4    29    1
    10     5     6    1
    11     5    25    2
    12     6     7    2
    13     6     8   am
    14     8     9    1
    15     8    30    1
    16     9    10    1
    17     9    21    1
    18     9    11    1
    19    11    12    1
    20    11    31    1
    21    11    32    1
    22    12    13    1
    23    12    14    1
    24    12    21    1
    25    14    15    1
    26    14    33    1
    27    15    16    1
    28    15    34    1
    29    15    35    1
    30    16    20    1
    31    16    17    2
    32    17    18    1
    33    18    19    1
    34    19    20    2
    35    20    36    1
    36    21    24    1
    37    21    22    1
    38    22    23    1
    39    22    37    1
    40    22    38    1
    41    23    24    1
    42    23    39    1
    43    23    40    1
    44    24    41    1
    45    24    42    1
@<TRIPOS>SUBSTRUCTURE
     1 ZINC001078748831        1 TEMP              0 ****  ****    0 ROOT


##########                                Name:    ZINC000011498449
##########                DOCK_Rotatable_Bonds:                   5
##########                         Heavy_Atoms:                  21
##########                    Molecular_Weight:             331.198
##########                DOCK_Rotatable_Bonds:                   5
##########                       Formal_Charge:         1.30385e-07
##########                     HBond_Acceptors:                   7
##########                        HBond_Donors:                   1
##########                         Heavy_Atoms:                  21
##########                          Grid_Score:          -25.644192
##########                     Grid_vdw_energy:          -23.845459
##########                      Grid_es_energy:           -1.798733
##########           Internal_energy_repulsive:           10.964849

@<TRIPOS>MOLECULE
ZINC000011498449
 37 38 1 0 0
SMALL
USER_CHARGES


@<TRIPOS>ATOM
      1 C1         -7.5569    3.8873   63.5257 C.3     1  ZINC000011498449   -0.1500
      2 C2         -7.0252    2.6385   62.8194 C.3     1  ZINC000011498449    0.0700
      3 H3         -5.9363    2.6298   62.8659 H       1  ZINC000011498449    0.0600
      4 C4         -7.4750    2.6487   61.3539 C.3     1  ZINC000011498449    0.0800
      5 N5         -7.1143    1.3567   60.7487 N.am    1  ZINC000011498449   -0.6100
      6 C6         -6.4393    1.3007   59.5836 C.2     1  ZINC000011498449    0.5100
      7 O7         -6.1525    0.2261   59.1000 O.2     1  ZINC000011498449   -0.5300
      8 C8         -6.0410    2.5734   58.8817 C.3     1  ZINC000011498449    0.1000
      9 N9         -5.8192    2.2980   57.4600 N.am    1  ZINC000011498449   -0.7200
     10 C10        -6.5727    2.9153   56.5284 C.2     1  ZINC000011498449    0.5600
     11 O11        -7.4355    3.7016   56.8678 O.2     1  ZINC000011498449   -0.5100
     12 C12        -6.3502    2.6363   55.0950 C.ar    1  ZINC000011498449   -0.1300
     13 C13        -5.2459    3.1822   54.4377 C.ar    1  ZINC000011498449   -0.0600
     14 C14        -5.0433    2.9178   53.0998 C.ar    1  ZINC000011498449   -0.1100
     15 C15        -5.9322    2.1124   52.4068 C.ar    1  ZINC000011498449    0.0000
     16 Cl16       -5.6688    1.7844   50.7225 Cl      1  ZINC000011498449   -0.0400
     17 C17        -7.0296    1.5675   53.0518 C.ar    1  ZINC000011498449   -0.1100
     18 C18        -7.2411    1.8200   54.3924 C.ar    1  ZINC000011498449    0.0300
     19 Cl19       -8.6171    1.1363   55.2002 Cl      1  ZINC000011498449   -0.0100
     20 C20        -7.5119    0.1277   61.4537 C.3     1  ZINC000011498449    0.0700
     21 C21        -7.0604    0.2404   62.9142 C.3     1  ZINC000011498449    0.0500
     22 O22        -7.5401    1.4703   63.4627 O.3     1  ZINC000011498449   -0.3700
     23 H23        -7.2382    3.8786   64.5681 H       1  ZINC000011498449    0.0700
     24 H24        -7.1654    4.7775   63.0335 H       1  ZINC000011498449    0.0800
     25 H25        -8.6458    3.8955   63.4787 H       1  ZINC000011498449    0.0700
     26 H26        -8.5547    2.7896   61.3022 H       1  ZINC000011498449    0.0800
     27 H27        -6.9730    3.4565   60.8214 H       1  ZINC000011498449    0.1000
     28 H28        -6.8359    3.3116   58.9890 H       1  ZINC000011498449    0.1000
     29 H29        -5.1233    2.9606   59.3242 H       1  ZINC000011498449    0.1000
     30 H30        -5.1300    1.6715   57.1890 H       1  ZINC000011498449    0.4100
     31 H31        -4.5520    3.8106   54.9761 H       1  ZINC000011498449    0.1500
     32 H32        -4.1895    3.3400   52.5907 H       1  ZINC000011498449    0.1500
     33 H33        -7.7190    0.9403   52.5061 H       1  ZINC000011498449    0.1500
     34 H34        -8.5953    0.0148   61.4121 H       1  ZINC000011498449    0.0900
     35 H35        -7.0343   -0.7339   60.9872 H       1  ZINC000011498449    0.1000
     36 H36        -7.4643   -0.5952   63.4858 H       1  ZINC000011498449    0.1100
     37 H37        -5.9715    0.2220   62.9611 H       1  ZINC000011498449    0.0600
@<TRIPOS>BOND
     1     1     2    1
     2     1    23    1
     3     1    24    1
     4     1    25    1
     5     2     3    1
     6     2    22    1
     7     2     4    1
     8     4     5    1
     9     4    26    1
    10     4    27    1
    11     5     6   am
    12     5    20    1
    13     6     7    2
    14     6     8    1
    15     8     9    1
    16     8    28    1
    17     8    29    1
    18     9    10   am
    19     9    30    1
    20    10    11    2
    21    10    12    1
    22    12    18   ar
    23    12    13   ar
    24    13    14   ar
    25    13    31    1
    26    14    15   ar
    27    14    32    1
    28    15    16    1
    29    15    17   ar
    30    17    18   ar
    31    17    33    1
    32    18    19    1
    33    20    21    1
    34    20    34    1
    35    20    35    1
    36    21    22    1
    37    21    36    1
    38    21    37    1
@<TRIPOS>SUBSTRUCTURE
     1 ZINC000011498449        1 TEMP              0 ****  ****    0 ROOT


##########                                Name:    ZINC001053433946
##########                DOCK_Rotatable_Bonds:                   6
##########                         Heavy_Atoms:                  24
##########                    Molecular_Weight:             337.419
##########                DOCK_Rotatable_Bonds:                   6
##########                       Formal_Charge:               -0.02
##########                     HBond_Acceptors:                   7
##########                        HBond_Donors:                   2
##########                         Heavy_Atoms:                  24
##########                          Grid_Score:          -25.619007
##########                     Grid_vdw_energy:          -24.314363
##########                      Grid_es_energy:           -1.304644
##########           Internal_energy_repulsive:           11.504930

@<TRIPOS>MOLECULE
ZINC001053433946
 51 54 1 0 0
SMALL
USER_CHARGES


@<TRIPOS>ATOM
      1 N1        -15.0733   -3.2147   57.7628 N.am    1  ZINC001053433946   -0.8300
      2 C2        -15.1618   -2.1675   58.6066 C.2     1  ZINC001053433946    0.5600
      3 O3        -16.0915   -1.3939   58.5175 O.2     1  ZINC001053433946   -0.5500
      4 C4        -14.1055   -1.9579   59.6607 C.3     1  ZINC001053433946   -0.1600
      5 H5        -13.9603   -2.7877   60.3525 H       1  ZINC001053433946    0.1400
      6 C6        -13.9266   -0.5410   60.2097 C.3     1  ZINC001053433946   -0.1300
      7 C7        -12.8733   -1.1378   59.2729 C.3     1  ZINC001053433946   -0.1700
      8 H8        -11.9178   -1.4278   59.7097 H       1  ZINC001053433946    0.1400
      9 C9        -12.8088   -0.6008   57.8664 C.2     1  ZINC001053433946    0.5400
     10 O10       -13.2978    0.4781   57.6061 O.2     1  ZINC001053433946   -0.5200
     11 N11       -12.2075   -1.3194   56.8976 N.am    1  ZINC001053433946   -0.6100
     12 C12       -11.6066   -2.6308   57.1873 C.3     1  ZINC001053433946    0.0700
     13 C13       -10.1630   -2.6346   56.6739 C.3     1  ZINC001053433946    0.0500
     14 O14       -10.1505   -2.2644   55.2916 O.3     1  ZINC001053433946   -0.3400
     15 C15       -10.6877   -0.9700   55.0340 C.3     1  ZINC001053433946    0.0800
     16 C16        -9.7707    0.1790   55.4744 C.3     1  ZINC001053433946   -0.0100
     17 N17        -9.2133    0.1228   54.1040 N.3     1  ZINC001053433946   -0.4700
     18 C18        -9.0218    1.4730   53.5577 C.3     1  ZINC001053433946    0.0200
     19 C19        -7.5750    1.9151   53.7862 C.3     1  ZINC001053433946   -0.1200
     20 H20        -6.9459    1.0381   53.9386 H       1  ZINC001053433946    0.0800
     21 C21        -7.0791    2.6947   52.5645 C.3     1  ZINC001053433946   -0.1200
     22 C22        -5.6582    3.1984   52.8363 C.3     1  ZINC001053433946   -0.1600
     23 C23        -5.6620    4.0514   54.1075 C.3     1  ZINC001053433946    0.0600
     24 O24        -6.1629    3.2758   55.1984 O.3     1  ZINC001053433946   -0.3800
     25 C25        -7.5044    2.8163   55.0217 C.3     1  ZINC001053433946    0.0700
     26 C26       -10.4655   -0.4823   53.5962 C.3     1  ZINC001053433946    0.0200
     27 C27       -12.1364   -0.8194   55.5135 C.3     1  ZINC001053433946    0.1000
     28 H28       -15.7526   -3.3489   57.0836 H       1  ZINC001053433946    0.4000
     29 H29       -14.3282   -3.8319   57.8322 H       1  ZINC001053433946    0.4000
     30 H30       -14.5731    0.2395   59.8084 H       1  ZINC001053433946    0.1100
     31 H31       -13.6635   -0.4387   61.2625 H       1  ZINC001053433946    0.1200
     32 H32       -11.6124   -2.8058   58.2632 H       1  ZINC001053433946    0.1000
     33 H33       -12.1757   -3.4127   56.6845 H       1  ZINC001053433946    0.0800
     34 H34        -9.5712   -1.9209   57.2470 H       1  ZINC001053433946    0.0600
     35 H35        -9.7394   -3.6326   56.7869 H       1  ZINC001053433946    0.1100
     36 H36       -10.3015    1.1050   55.6954 H       1  ZINC001053433946    0.0800
     37 H37        -9.0581   -0.1002   56.2505 H       1  ZINC001053433946    0.0900
     38 H38        -9.2351    1.4661   52.4888 H       1  ZINC001053433946    0.0500
     39 H39        -9.6971    2.1666   54.0586 H       1  ZINC001053433946    0.0800
     40 H40        -7.0735    2.0410   51.6923 H       1  ZINC001053433946    0.0700
     41 H41        -7.7380    3.5435   52.3815 H       1  ZINC001053433946    0.0700
     42 H42        -4.9896    2.3479   52.9701 H       1  ZINC001053433946    0.0700
     43 H43        -5.3181    3.8012   51.9942 H       1  ZINC001053433946    0.0700
     44 H44        -4.6458    4.3772   54.3296 H       1  ZINC001053433946    0.0900
     45 H45        -6.2991    4.9231   53.9585 H       1  ZINC001053433946    0.0500
     46 H46        -8.1665    3.6713   54.8844 H       1  ZINC001053433946    0.0500
     47 H47        -7.8149    2.2536   55.9021 H       1  ZINC001053433946    0.1000
     48 H48       -10.3053   -1.2872   52.8788 H       1  ZINC001053433946    0.1000
     49 H49       -11.2021    0.2479   53.2609 H       1  ZINC001053433946    0.0900
     50 H50       -12.7991   -1.3996   54.8713 H       1  ZINC001053433946    0.0800
     51 H51       -12.4253    0.2313   55.4883 H       1  ZINC001053433946    0.1000
@<TRIPOS>BOND
     1     1     2   am
     2     1    28    1
     3     1    29    1
     4     2     3    2
     5     2     4    1
     6     4     5    1
     7     4     7    1
     8     4     6    1
     9     6     7    1
    10     6    30    1
    11     6    31    1
    12     7     8    1
    13     7     9    1
    14     9    10    2
    15     9    11   am
    16    11    27    1
    17    11    12    1
    18    12    13    1
    19    12    32    1
    20    12    33    1
    21    13    14    1
    22    13    34    1
    23    13    35    1
    24    14    15    1
    25    15    26    1
    26    15    16    1
    27    15    27    1
    28    16    17    1
    29    16    36    1
    30    16    37    1
    31    17    18    1
    32    17    26    1
    33    18    19    1
    34    18    38    1
    35    18    39    1
    36    19    20    1
    37    19    25    1
    38    19    21    1
    39    21    22    1
    40    21    40    1
    41    21    41    1
    42    22    23    1
    43    22    42    1
    44    22    43    1
    45    23    24    1
    46    23    44    1
    47    23    45    1
    48    24    25    1
    49    25    46    1
    50    25    47    1
    51    26    48    1
    52    26    49    1
    53    27    50    1
    54    27    51    1
@<TRIPOS>SUBSTRUCTURE
     1 ZINC001053433946        1 TEMP              0 ****  ****    0 ROOT


##########                                Name:    ZINC000081577146
##########                DOCK_Rotatable_Bonds:                   4
##########                         Heavy_Atoms:                  25
##########                    Molecular_Weight:             355.464
##########                DOCK_Rotatable_Bonds:                   4
##########                       Formal_Charge:                0.02
##########                     HBond_Acceptors:                   7
##########                        HBond_Donors:                   0
##########                         Heavy_Atoms:                  25
##########                          Grid_Score:          -25.614895
##########                     Grid_vdw_energy:          -24.743113
##########                      Grid_es_energy:           -0.871783
##########           Internal_energy_repulsive:           14.129981

@<TRIPOS>MOLECULE
ZINC000081577146
 46 49 1 0 0
SMALL
USER_CHARGES


@<TRIPOS>ATOM
      1 C1         -0.5783    3.9177   53.0692 C.3     1  ZINC000081577146   -0.0700
      2 C2         -1.8046    3.2917   52.4564 C.2     1  ZINC000081577146    0.2900
      3 N3         -1.7040    2.4091   51.5057 N.2     1  ZINC000081577146   -0.4800
      4 S4         -3.2981    1.9711   51.1116 S.3     1  ZINC000081577146    0.1900
      5 C5         -4.0197    3.0213   52.2715 C.2     1  ZINC000081577146    0.2700
      6 N6         -5.3682    3.1973   52.5240 N.3     1  ZINC000081577146   -0.4300
      7 C7         -5.5796    4.1852   53.5912 C.3     1  ZINC000081577146    0.0700
      8 C8         -7.0811    4.4095   53.7849 C.3     1  ZINC000081577146    0.0500
      9 N9         -7.7256    3.1318   54.1189 N.3     1  ZINC000081577146   -0.5200
     10 C10        -9.1578    3.3187   54.3870 C.3     1  ZINC000081577146    0.1900
     11 H11        -9.3143    4.2837   54.8691 H       1  ZINC000081577146    0.0700
     12 C12        -9.6542    2.2021   55.3077 C.3     1  ZINC000081577146   -0.1500
     13 C13        -9.9217    3.2761   53.0887 C.2     1  ZINC000081577146    0.1900
     14 N14        -9.7196    4.0586   52.0658 N.2     1  ZINC000081577146   -0.4500
     15 C15       -10.5825    3.7325   51.0920 C.2     1  ZINC000081577146   -0.0200
     16 C16       -11.3428    2.7039   51.5472 C.2     1  ZINC000081577146    0.0000
     17 C17       -12.4271    2.0176   50.8134 C.ar    1  ZINC000081577146   -0.0200
     18 C18       -13.0062    0.8613   51.3385 C.ar    1  ZINC000081577146   -0.1000
     19 C19       -14.0181    0.2259   50.6488 C.ar    1  ZINC000081577146   -0.1200
     20 C20       -14.4587    0.7323   49.4390 C.ar    1  ZINC000081577146   -0.1100
     21 C21       -13.8886    1.8777   48.9127 C.ar    1  ZINC000081577146   -0.1100
     22 C22       -12.8802    2.5263   49.5952 C.ar    1  ZINC000081577146   -0.0900
     23 O23       -10.9142    2.4242   52.7978 O.3     1  ZINC000081577146   -0.2000
     24 C24        -7.5142    2.1438   53.0516 C.3     1  ZINC000081577146    0.0600
     25 C25        -6.0127    1.9195   52.8578 C.3     1  ZINC000081577146    0.0500
     26 N26        -3.0082    3.6155   52.8686 N.2     1  ZINC000081577146   -0.5400
     27 H27        -0.2465    3.3149   53.9146 H       1  ZINC000081577146    0.0900
     28 H28         0.2157    3.9665   52.3240 H       1  ZINC000081577146    0.0900
     29 H29        -0.8171    4.9244   53.4122 H       1  ZINC000081577146    0.0900
     30 H30        -5.1442    3.8160   54.5198 H       1  ZINC000081577146    0.0700
     31 H31        -5.1039    5.1262   53.3150 H       1  ZINC000081577146    0.1100
     32 H32        -7.2410    5.1202   54.5957 H       1  ZINC000081577146    0.1000
     33 H33        -7.5115    4.8044   52.8646 H       1  ZINC000081577146    0.0600
     34 H34        -9.4978    1.2371   54.8255 H       1  ZINC000081577146    0.0800
     35 H35        -9.1016    2.2329   56.2467 H       1  ZINC000081577146    0.0800
     36 H36       -10.7168    2.3408   55.5066 H       1  ZINC000081577146    0.0700
     37 H37       -10.6586    4.2024   50.1226 H       1  ZINC000081577146    0.1900
     38 H38       -12.6627    0.4646   52.2825 H       1  ZINC000081577146    0.1300
     39 H39       -14.4670   -0.6690   51.0540 H       1  ZINC000081577146    0.1300
     40 H40       -15.2509    0.2308   48.9029 H       1  ZINC000081577146    0.1300
     41 H41       -14.2367    2.2674   47.9675 H       1  ZINC000081577146    0.1300
     42 H42       -12.4363    3.4206   49.1835 H       1  ZINC000081577146    0.1300
     43 H43        -7.9898    1.2028   53.3278 H       1  ZINC000081577146    0.0900
     44 H44        -7.9495    2.5130   52.1229 H       1  ZINC000081577146    0.0500
     45 H45        -5.8528    1.2087   52.0471 H       1  ZINC000081577146    0.1000
     46 H46        -5.5823    1.5247   53.7781 H       1  ZINC000081577146    0.0800
@<TRIPOS>BOND
     1     1     2    1
     2     1    27    1
     3     1    28    1
     4     1    29    1
     5     2    26    1
     6     2     3    2
     7     3     4    1
     8     4     5    1
     9     5     6    1
    10     5    26    2
    11     6    25    1
    12     6     7    1
    13     7     8    1
    14     7    30    1
    15     7    31    1
    16     8     9    1
    17     8    32    1
    18     8    33    1
    19     9    10    1
    20     9    24    1
    21    10    11    1
    22    10    12    1
    23    10    13    1
    24    12    34    1
    25    12    35    1
    26    12    36    1
    27    13    23    1
    28    13    14    2
    29    14    15    1
    30    15    16    2
    31    15    37    1
    32    16    17    1
    33    16    23    1
    34    17    22   ar
    35    17    18   ar
    36    18    19   ar
    37    18    38    1
    38    19    20   ar
    39    19    39    1
    40    20    21   ar
    41    20    40    1
    42    21    22   ar
    43    21    41    1
    44    22    42    1
    45    24    25    1
    46    24    43    1
    47    24    44    1
    48    25    45    1
    49    25    46    1
@<TRIPOS>SUBSTRUCTURE
     1 ZINC000081577146        1 TEMP              0 ****  ****    0 ROOT


##########                                Name:    ZINC000811540126
##########                DOCK_Rotatable_Bonds:                   7
##########                         Heavy_Atoms:                  21
##########                    Molecular_Weight:             397.212
##########                DOCK_Rotatable_Bonds:                   7
##########                       Formal_Charge:           0.0100001
##########                     HBond_Acceptors:                   4
##########                        HBond_Donors:                   3
##########                         Heavy_Atoms:                  21
##########                          Grid_Score:          -25.590698
##########                     Grid_vdw_energy:          -25.108023
##########                      Grid_es_energy:           -0.482676
##########           Internal_energy_repulsive:            9.051086

@<TRIPOS>MOLECULE
ZINC000811540126
 37 38 1 0 0
SMALL
USER_CHARGES


@<TRIPOS>ATOM
      1 C1        -13.3498   -1.8686   59.7845 C.3     1  ZINC000811540126   -0.1600
      2 C2        -12.2110   -1.4777   58.8403 C.3     1  ZINC000811540126    0.1200
      3 H3        -12.4569   -0.5391   58.3436 H       1  ZINC000811540126    0.1000
      4 N4        -10.9742   -1.3144   59.6082 N.am    1  ZINC000811540126   -0.7200
      5 C5        -10.6356   -0.1023   60.0907 C.2     1  ZINC000811540126    0.5700
      6 O6        -11.3559    0.8558   59.8873 O.2     1  ZINC000811540126   -0.5100
      7 C7         -9.3909    0.0618   60.8655 C.ar    1  ZINC000811540126   -0.1600
      8 C8         -9.4420    0.2109   62.2533 C.ar    1  ZINC000811540126   -0.0400
      9 C9         -8.2751    0.3639   62.9716 C.ar    1  ZINC000811540126   -0.1200
     10 I10        -8.3534    0.5876   65.0532 I       1  ZINC000811540126   -0.0300
     11 C11        -7.0509    0.3699   62.3229 C.ar    1  ZINC000811540126   -0.0400
     12 C12        -6.9866    0.2238   60.9512 C.ar    1  ZINC000811540126   -0.1500
     13 C13        -8.1498    0.0631   60.2138 C.ar    1  ZINC000811540126    0.1900
     14 O14        -8.0880   -0.0810   58.8663 O.3     1  ZINC000811540126   -0.4700
     15 C15       -12.0190   -2.5749   57.7914 C.3     1  ZINC000811540126    0.1400
     16 H16       -12.9908   -2.9742   57.5011 H       1  ZINC000811540126    0.1300
     17 O17       -11.2177   -3.6233   58.3398 O.3     1  ZINC000811540126   -0.5400
     18 C18       -11.3312   -1.9978   56.5810 C.ar    1  ZINC000811540126   -0.1200
     19 C19       -11.8480   -0.8751   55.9621 C.ar    1  ZINC000811540126   -0.1100
     20 C20       -11.2172   -0.3457   54.8518 C.ar    1  ZINC000811540126   -0.1100
     21 C21       -10.0693   -0.9391   54.3606 C.ar    1  ZINC000811540126   -0.1200
     22 C22        -9.5520   -2.0614   54.9801 C.ar    1  ZINC000811540126   -0.1100
     23 C23       -10.1804   -2.5881   56.0930 C.ar    1  ZINC000811540126   -0.1100
     24 H24       -13.4866   -1.0870   60.5318 H       1  ZINC000811540126    0.0600
     25 H25       -14.2699   -1.9901   59.2131 H       1  ZINC000811540126    0.0700
     26 H26       -13.1039   -2.8072   60.2812 H       1  ZINC000811540126    0.0700
     27 H27       -10.3989   -2.0786   59.7695 H       1  ZINC000811540126    0.3900
     28 H28       -10.3942    0.2068   62.7630 H       1  ZINC000811540126    0.1300
     29 H29        -6.1416    0.4899   62.8931 H       1  ZINC000811540126    0.1400
     30 H30        -6.0286    0.2299   60.4526 H       1  ZINC000811540126    0.1500
     31 H31        -8.9354    0.0452   58.4179 H       1  ZINC000811540126    0.4000
     32 H32       -10.2765   -3.4093   58.3986 H       1  ZINC000811540126    0.3700
     33 H33       -12.7449   -0.4115   56.3458 H       1  ZINC000811540126    0.1100
     34 H34       -11.6214    0.5311   54.3678 H       1  ZINC000811540126    0.1200
     35 H35        -9.5768   -0.5260   53.4927 H       1  ZINC000811540126    0.1200
     36 H36        -8.6553   -2.5251   54.5961 H       1  ZINC000811540126    0.1300
     37 H37        -9.7763   -3.4649   56.5769 H       1  ZINC000811540126    0.1200
@<TRIPOS>BOND
     1     1     2    1
     2     1    24    1
     3     1    25    1
     4     1    26    1
     5     2     3    1
     6     2     4    1
     7     2    15    1
     8     4     5   am
     9     4    27    1
    10     5     6    2
    11     5     7    1
    12     7    13   ar
    13     7     8   ar
    14     8     9   ar
    15     8    28    1
    16     9    10    1
    17     9    11   ar
    18    11    12   ar
    19    11    29    1
    20    12    13   ar
    21    12    30    1
    22    13    14    1
    23    14    31    1
    24    15    16    1
    25    15    17    1
    26    15    18    1
    27    17    32    1
    28    18    23   ar
    29    18    19   ar
    30    19    20   ar
    31    19    33    1
    32    20    21   ar
    33    20    34    1
    34    21    22   ar
    35    21    35    1
    36    22    23   ar
    37    22    36    1
    38    23    37    1
@<TRIPOS>SUBSTRUCTURE
     1 ZINC000811540126        1 TEMP              0 ****  ****    0 ROOT


##########                                Name:    ZINC000053543817
##########                DOCK_Rotatable_Bonds:                   7
##########                         Heavy_Atoms:                  25
##########                    Molecular_Weight:             350.458
##########                DOCK_Rotatable_Bonds:                   7
##########                       Formal_Charge:           0.0199998
##########                     HBond_Acceptors:                   6
##########                        HBond_Donors:                   2
##########                         Heavy_Atoms:                  25
##########                          Grid_Score:          -25.582344
##########                     Grid_vdw_energy:          -25.625814
##########                      Grid_es_energy:            0.043471
##########           Internal_energy_repulsive:           35.394527

@<TRIPOS>MOLECULE
ZINC000053543817
 55 56 1 0 0
SMALL
USER_CHARGES


@<TRIPOS>ATOM
      1 C1         -5.1561    1.9971   51.5377 C.3     1  ZINC000053543817   -0.0700
      2 C2         -6.0049    2.2590   52.7552 C.2     1  ZINC000053543817   -0.0200
      3 C3         -6.7346    1.3406   53.4189 C.2     1  ZINC000053543817   -0.1800
      4 C4         -7.3623    2.0160   54.4810 C.2     1  ZINC000053543817   -0.1900
      5 C5         -6.9829    3.3085   54.4104 C.2     1  ZINC000053543817    0.0000
      6 C6         -7.4391    4.3737   55.3775 C.3     1  ZINC000053543817   -0.0300
      7 C7         -8.0129    3.6853   56.6216 C.3     1  ZINC000053543817   -0.0500
      8 C8         -6.8787    3.0233   57.4067 C.3     1  ZINC000053543817   -0.1500
      9 C9         -8.7056    4.7247   57.5054 C.3     1  ZINC000053543817   -0.1400
     10 C10        -9.0277    2.6206   56.1958 C.3     1  ZINC000053543817   -0.1200
     11 C11        -8.2912    1.4538   55.5251 C.3     1  ZINC000053543817    0.2200
     12 H12        -7.7165    0.9051   56.2712 H       1  ZINC000053543817    0.1000
     13 N13        -9.2611    0.5569   54.8919 N.am    1  ZINC000053543817   -0.7100
     14 C14        -9.7011   -0.5333   55.5510 C.2     1  ZINC000053543817    0.5100
     15 O15        -9.2930   -0.7726   56.6677 O.2     1  ZINC000053543817   -0.5300
     16 C16       -10.7002   -1.4550   54.9002 C.3     1  ZINC000053543817    0.1400
     17 H17       -10.4978   -2.4823   55.2029 H       1  ZINC000053543817    0.1200
     18 C18       -10.5852   -1.3395   53.3790 C.3     1  ZINC000053543817   -0.1600
     19 N19       -12.0538   -1.0806   55.3174 N.am    1  ZINC000053543817   -0.7000
     20 C20       -12.6018   -1.6447   56.4120 C.2     1  ZINC000053543817    0.6600
     21 O21       -11.9738   -2.4649   57.0518 O.2     1  ZINC000053543817   -0.5700
     22 O22       -13.8451   -1.2995   56.7963 O.3     1  ZINC000053543817   -0.3600
     23 C23       -14.3798   -1.9630   57.9719 C.3     1  ZINC000053543817    0.1400
     24 C24       -13.4882   -1.6606   59.1779 C.3     1  ZINC000053543817   -0.1800
     25 C25       -15.7966   -1.4541   58.2446 C.3     1  ZINC000053543817   -0.1400
     26 C26       -14.4178   -3.4737   57.7319 C.3     1  ZINC000053543817   -0.1800
     27 O27        -6.1576    3.4477   53.3661 O.3     1  ZINC000053543817   -0.1700
     28 H28        -4.6787    2.9245   51.2213 H       1  ZINC000053543817    0.0800
     29 H29        -4.3914    1.2591   51.7799 H       1  ZINC000053543817    0.0800
     30 H30        -5.7843    1.6183   50.7315 H       1  ZINC000053543817    0.0800
     31 H31        -6.8207    0.2907   53.1812 H       1  ZINC000053543817    0.1400
     32 H32        -6.5917    4.9976   55.6619 H       1  ZINC000053543817    0.0900
     33 H33        -8.2093    4.9873   54.9101 H       1  ZINC000053543817    0.0900
     34 H34        -6.1569    3.7812   57.7111 H       1  ZINC000053543817    0.0600
     35 H35        -7.2865    2.5339   58.2912 H       1  ZINC000053543817    0.0600
     36 H36        -6.3848    2.2833   56.7771 H       1  ZINC000053543817    0.0600
     37 H37        -9.5133    5.1968   56.9461 H       1  ZINC000053543817    0.0600
     38 H38        -9.1137    4.2355   58.3899 H       1  ZINC000053543817    0.0600
     39 H39        -7.9833    5.4821   57.8097 H       1  ZINC000053543817    0.0600
     40 H40        -9.5625    2.2567   57.0730 H       1  ZINC000053543817    0.0800
     41 H41        -9.7371    3.0557   55.4919 H       1  ZINC000053543817    0.0700
     42 H42        -9.5867    0.7476   53.9983 H       1  ZINC000053543817    0.4000
     43 H43        -9.5781   -1.6179   53.0686 H       1  ZINC000053543817    0.0800
     44 H44       -11.3078   -2.0060   52.9083 H       1  ZINC000053543817    0.0800
     45 H45       -10.7877   -0.3121   53.0763 H       1  ZINC000053543817    0.0700
     46 H46       -12.5555   -0.4267   54.8060 H       1  ZINC000053543817    0.4200
     47 H47       -13.4611   -0.5844   59.3490 H       1  ZINC000053543817    0.0600
     48 H48       -13.8896   -2.1587   60.0606 H       1  ZINC000053543817    0.0700
     49 H49       -12.4788   -2.0232   58.9836 H       1  ZINC000053543817    0.0900
     50 H50       -16.4318   -1.6696   57.3855 H       1  ZINC000053543817    0.0700
     51 H51       -16.1980   -1.9523   59.1272 H       1  ZINC000053543817    0.0800
     52 H52       -15.7695   -0.3780   58.4157 H       1  ZINC000053543817    0.0700
     53 H53       -13.4084   -3.8362   57.5375 H       1  ZINC000053543817    0.0900
     54 H54       -14.8192   -3.9718   58.6144 H       1  ZINC000053543817    0.0700
     55 H55       -15.0529   -3.6890   56.8727 H       1  ZINC000053543817    0.0600
@<TRIPOS>BOND
     1     1     2    1
     2     1    28    1
     3     1    29    1
     4     1    30    1
     5     2    27    1
     6     2     3    2
     7     3     4    1
     8     3    31    1
     9     4    11    1
    10     4     5    2
    11     5     6    1
    12     5    27    1
    13     6     7    1
    14     6    32    1
    15     6    33    1
    16     7     8    1
    17     7     9    1
    18     7    10    1
    19     8    34    1
    20     8    35    1
    21     8    36    1
    22     9    37    1
    23     9    38    1
    24     9    39    1
    25    10    11    1
    26    10    40    1
    27    10    41    1
    28    11    12    1
    29    11    13    1
    30    13    14   am
    31    13    42    1
    32    14    15    2
    33    14    16    1
    34    16    17    1
    35    16    18    1
    36    16    19    1
    37    18    43    1
    38    18    44    1
    39    18    45    1
    40    19    20   am
    41    19    46    1
    42    20    21    2
    43    20    22    1
    44    22    23    1
    45    23    24    1
    46    23    25    1
    47    23    26    1
    48    24    47    1
    49    24    48    1
    50    24    49    1
    51    25    50    1
    52    25    51    1
    53    25    52    1
    54    26    53    1
    55    26    54    1
    56    26    55    1
@<TRIPOS>SUBSTRUCTURE
     1 ZINC000053543817        1 TEMP              0 ****  ****    0 ROOT


##########                                Name:    ZINC000350493047
##########                DOCK_Rotatable_Bonds:                   7
##########                         Heavy_Atoms:                  24
##########                    Molecular_Weight:             330.387
##########                DOCK_Rotatable_Bonds:                   7
##########                       Formal_Charge:          -0.0300002
##########                     HBond_Acceptors:                   7
##########                        HBond_Donors:                   3
##########                         Heavy_Atoms:                  24
##########                          Grid_Score:          -25.576670
##########                     Grid_vdw_energy:          -26.103857
##########                      Grid_es_energy:            0.527187
##########           Internal_energy_repulsive:           14.256799

@<TRIPOS>MOLECULE
ZINC000350493047
 46 48 1 0 0
SMALL
USER_CHARGES


@<TRIPOS>ATOM
      1 C1          3.0579    3.4657   50.8066 C.3     1  <0>        -0.1600
      2 C2          2.0539    2.3113   50.7919 C.3     1  <0>         0.2600
      3 H3          2.4545    1.4742   51.3637 H       1  <0>         0.1200
      4 N4          1.8157    1.8888   49.4095 N.am    1  <0>        -0.7400
      5 C5          2.6421    0.9993   48.8247 C.2     1  <0>         0.7100
      6 N6          2.4220    0.6094   47.5534 N.am    1  <0>        -0.8600
      7 O7          3.5865    0.5485   49.4439 O.2     1  <0>        -0.5900
      8 C8          0.7564    2.7660   51.4089 C.2     1  <0>         0.1700
      9 N9          0.6218    3.6680   52.3359 N.2     1  <0>        -0.3800
     10 O10        -0.5481    3.8115   52.6222 O.3     1  <0>         0.0900
     11 C11        -1.3003    2.9851   51.8787 C.2     1  <0>         0.2400
     12 C12        -2.7703    2.8518   51.9217 C.ar    1  <0>        -0.0800
     13 C13        -3.4177    1.9586   51.0648 C.ar    1  <0>        -0.0200
     14 C14        -4.7894    1.8371   51.1079 C.ar    1  <0>        -0.2200
     15 C15        -5.5286    2.6019   52.0020 C.ar    1  <0>         0.1700
     16 O16        -6.8802    2.4795   52.0412 O.3     1  <0>        -0.3000
     17 C17        -7.5262    2.8094   53.2725 C.3     1  <0>         0.0800
     18 C18        -9.0430    2.7904   53.0736 C.3     1  <0>        -0.1500
     19 C19        -9.7346    3.1435   54.3919 C.3     1  <0>        -0.1200
     20 C20        -9.3476    2.1199   55.4611 C.3     1  <0>        -0.1300
     21 C21        -7.8306    2.1388   55.6600 C.3     1  <0>        -0.1200
     22 C22        -7.1390    1.7857   54.3417 C.3     1  <0>        -0.1200
     23 C23        -4.8883    3.4911   52.8563 C.ar    1  <0>        -0.1600
     24 C24        -3.5166    3.6142   52.8234 C.ar    1  <0>        -0.0300
     25 N25        -0.4693    2.3174   51.0969 N.2     1  <0>        -0.4700
     26 H26         2.6574    4.3028   50.2348 H       1  <0>         0.0600
     27 H27         3.2352    3.7800   51.8350 H       1  <0>         0.0700
     28 H28         3.9963    3.1368   50.3602 H       1  <0>         0.0800
     29 H29         1.0630    2.2493   48.9151 H       1  <0>         0.4000
     30 H30         3.0162   -0.0317   47.1330 H       1  <0>         0.4000
     31 H31         1.6694    0.9699   47.0590 H       1  <0>         0.4200
     32 H32        -2.8439    1.3644   50.3691 H       1  <0>         0.1400
     33 H33        -5.2907    1.1469   50.4458 H       1  <0>         0.1400
     34 H34        -7.2139    3.8038   53.5915 H       1  <0>         0.0800
     35 H35        -9.3188    3.5196   52.3118 H       1  <0>         0.0700
     36 H36        -9.3552    1.7959   52.7545 H       1  <0>         0.0800
     37 H37        -9.4224    4.1379   54.7109 H       1  <0>         0.0600
     38 H38       -10.8153    3.1300   54.2503 H       1  <0>         0.0700
     39 H39        -9.8403    2.3715   56.4003 H       1  <0>         0.0700
     40 H40        -9.6598    1.1254   55.1421 H       1  <0>         0.0700
     41 H41        -7.5185    3.1333   55.9789 H       1  <0>         0.0700
     42 H42        -7.5549    1.4096   56.4216 H       1  <0>         0.0700
     43 H43        -7.4512    0.7913   54.0226 H       1  <0>         0.0800
     44 H44        -6.0584    1.7992   54.4833 H       1  <0>         0.0700
     45 H45        -5.4664    4.0834   53.5501 H       1  <0>         0.1400
     46 H46        -3.0195    4.3053   53.4881 H       1  <0>         0.1400
@<TRIPOS>BOND
     1     1     2    1
     2     1    26    1
     3     1    27    1
     4     1    28    1
     5     2     3    1
     6     2     4    1
     7     2     8    1
     8     4     5   am
     9     4    29    1
    10     5     6   am
    11     5     7    2
    12     6    30    1
    13     6    31    1
    14     8    25    1
    15     8     9    2
    16     9    10    1
    17    10    11    1
    18    11    12    1
    19    11    25    2
    20    12    24   ar
    21    12    13   ar
    22    13    14   ar
    23    13    32    1
    24    14    15   ar
    25    14    33    1
    26    15    16    1
    27    15    23   ar
    28    16    17    1
    29    17    22    1
    30    17    18    1
    31    17    34    1
    32    18    19    1
    33    18    35    1
    34    18    36    1
    35    19    20    1
    36    19    37    1
    37    19    38    1
    38    20    21    1
    39    20    39    1
    40    20    40    1
    41    21    22    1
    42    21    41    1
    43    21    42    1
    44    22    43    1
    45    22    44    1
    46    23    24   ar
    47    23    45    1
    48    24    46    1
@<TRIPOS>SUBSTRUCTURE
     1 <0>         1 TEMP              0 ****  ****    0 ROOT


##########                                Name:    ZINC000438893617
##########                DOCK_Rotatable_Bonds:                   5
##########                         Heavy_Atoms:                  29
##########                    Molecular_Weight:             412.596
##########                DOCK_Rotatable_Bonds:                   5
##########                       Formal_Charge:           0.0600001
##########                     HBond_Acceptors:                   5
##########                        HBond_Donors:                   0
##########                         Heavy_Atoms:                  29
##########                          Grid_Score:          -25.576006
##########                     Grid_vdw_energy:          -24.893536
##########                      Grid_es_energy:           -0.682470
##########           Internal_energy_repulsive:          169.372665

@<TRIPOS>MOLECULE
ZINC000438893617
 61 66 1 0 0
SMALL
USER_CHARGES


@<TRIPOS>ATOM
      1 C1         -9.7494   -2.7364   56.5103 C.3     1  ZINC000438893617   -0.1000
      2 C2        -10.4936   -1.8472   55.5479 C.2     1  ZINC000438893617   -0.0900
      3 C3        -11.6299   -1.2292   55.8741 C.2     1  ZINC000438893617   -0.1600
      4 C4        -12.3175   -1.3242   57.2117 C.3     1  ZINC000438893617   -0.0400
      5 H5        -11.9183   -2.0754   57.8931 H       1  ZINC000438893617    0.1400
      6 C6        -13.8247   -1.0641   57.2513 C.3     1  ZINC000438893617   -0.1400
      7 C7        -12.8536   -0.0287   57.8239 C.3     1  ZINC000438893617   -0.1800
      8 H8        -12.7094    0.8924   57.2593 H       1  ZINC000438893617    0.1300
      9 C9        -12.7903    0.1114   59.3231 C.2     1  ZINC000438893617    0.5500
     10 O10       -13.8118    0.1023   59.9767 O.2     1  ZINC000438893617   -0.5300
     11 N11       -11.5983    0.2467   59.9375 N.am    1  ZINC000438893617   -0.6100
     12 C12       -10.3529    0.2674   59.1576 C.3     1  ZINC000438893617    0.0900
     13 C13        -9.5844    1.5509   59.4953 C.3     1  ZINC000438893617    0.1000
     14 N14        -9.5069    1.6811   60.9571 N.am    1  ZINC000438893617   -0.6100
     15 C15        -8.3150    1.8174   61.5715 C.2     1  ZINC000438893617    0.5300
     16 O16        -7.2939    1.8333   60.9172 O.2     1  ZINC000438893617   -0.5300
     17 C17        -8.2512    1.9499   63.0713 C.3     1  ZINC000438893617   -0.0700
     18 C18        -9.0855    3.1539   63.5129 C.3     1  ZINC000438893617   -0.1100
     19 C19        -9.0207    3.2884   65.0355 C.3     1  ZINC000438893617   -0.0800
     20 C20        -7.5670    3.4888   65.4684 C.3     1  ZINC000438893617   -0.1100
     21 C21        -6.7327    2.2847   65.0268 C.3     1  ZINC000438893617   -0.0800
     22 C22        -7.2873    1.0146   65.6750 C.3     1  ZINC000438893617   -0.1100
     23 C23        -8.7410    0.8142   65.2421 C.3     1  ZINC000438893617   -0.0900
     24 C24        -9.5754    2.0183   65.6838 C.3     1  ZINC000438893617   -0.1100
     25 C25        -8.8059    0.6798   63.7194 C.3     1  ZINC000438893617   -0.0900
     26 C26        -6.7975    2.1503   63.5042 C.3     1  ZINC000438893617   -0.1200
     27 C27       -10.7523    1.6605   61.7371 C.3     1  ZINC000438893617    0.0700
     28 C28       -11.5213    0.3825   61.3988 C.3     1  ZINC000438893617    0.1000
     29 S29       -12.2025   -0.2861   54.5044 S.3     1  ZINC000438893617    0.1000
     30 C30       -10.8260   -0.7991   53.5372 C.2     1  ZINC000438893617   -0.2100
     31 C31       -10.0470   -1.6051   54.2601 C.2     1  ZINC000438893617   -0.1300
     32 H32        -9.0366   -2.1395   57.0794 H       1  ZINC000438893617    0.0700
     33 H33       -10.4575   -3.2055   57.1934 H       1  ZINC000438893617    0.0700
     34 H34        -9.2156   -3.5071   55.9544 H       1  ZINC000438893617    0.0700
     35 H35       -14.3189   -0.8243   56.3099 H       1  ZINC000438893617    0.1100
     36 H36       -14.4170   -1.6440   57.9591 H       1  ZINC000438893617    0.1100
     37 H37        -9.7459   -0.6007   59.4146 H       1  ZINC000438893617    0.0800
     38 H38       -10.5874    0.2508   58.0933 H       1  ZINC000438893617    0.1000
     39 H39        -8.5785    1.4953   59.0792 H       1  ZINC000438893617    0.1100
     40 H40       -10.1082    2.4113   59.0787 H       1  ZINC000438893617    0.0700
     41 H41        -8.6903    4.0588   63.0511 H       1  ZINC000438893617    0.0800
     42 H42       -10.1212    3.0111   63.2045 H       1  ZINC000438893617    0.0700
     43 H43        -9.6150    4.1463   65.3502 H       1  ZINC000438893617    0.0800
     44 H44        -7.1718    4.3936   65.0067 H       1  ZINC000438893617    0.0600
     45 H45        -7.5208    3.5847   66.5532 H       1  ZINC000438893617    0.0700
     46 H46        -5.6971    2.4275   65.3352 H       1  ZINC000438893617    0.0800
     47 H47        -6.6930    0.1568   65.3605 H       1  ZINC000438893617    0.0600
     48 H48        -7.2411    1.1104   66.7598 H       1  ZINC000438893617    0.0700
     49 H49        -9.1362   -0.0907   65.7039 H       1  ZINC000438893617    0.0700
     50 H50        -9.5292    2.1141   66.7686 H       1  ZINC000438893617    0.0700
     51 H51       -10.6110    1.8755   65.3755 H       1  ZINC000438893617    0.0600
     52 H52        -9.8416    0.5370   63.4110 H       1  ZINC000438893617    0.0700
     53 H53        -8.2115   -0.1781   63.4048 H       1  ZINC000438893617    0.0700
     54 H54        -6.2031    1.2924   63.1895 H       1  ZINC000438893617    0.0700
     55 H55        -6.4023    3.0551   63.0424 H       1  ZINC000438893617    0.0800
     56 H56       -10.5178    1.6771   62.8014 H       1  ZINC000438893617    0.1300
     57 H57       -11.3593    2.5286   61.4801 H       1  ZINC000438893617    0.0800
     58 H58       -12.5268    0.4395   61.8156 H       1  ZINC000438893617    0.1100
     59 H59       -10.9989   -0.4794   61.8139 H       1  ZINC000438893617    0.0700
     60 H60       -10.6379   -0.5031   52.5158 H       1  ZINC000438893617    0.1700
     61 H61        -9.1406   -2.0423   53.8680 H       1  ZINC000438893617    0.1400
@<TRIPOS>BOND
     1     1     2    1
     2     1    32    1
     3     1    33    1
     4     1    34    1
     5     2    31    1
     6     2     3    2
     7     3     4    1
     8     3    29    1
     9     4     5    1
    10     4     7    1
    11     4     6    1
    12     6     7    1
    13     6    35    1
    14     6    36    1
    15     7     8    1
    16     7     9    1
    17     9    10    2
    18     9    11   am
    19    11    28    1
    20    11    12    1
    21    12    13    1
    22    12    37    1
    23    12    38    1
    24    13    14    1
    25    13    39    1
    26    13    40    1
    27    14    15   am
    28    14    27    1
    29    15    16    2
    30    15    17    1
    31    17    25    1
    32    17    26    1
    33    17    18    1
    34    18    19    1
    35    18    41    1
    36    18    42    1
    37    19    24    1
    38    19    20    1
    39    19    43    1
    40    20    21    1
    41    20    44    1
    42    20    45    1
    43    21    22    1
    44    21    26    1
    45    21    46    1
    46    22    23    1
    47    22    47    1
    48    22    48    1
    49    23    24    1
    50    23    25    1
    51    23    49    1
    52    24    50    1
    53    24    51    1
    54    25    52    1
    55    25    53    1
    56    26    54    1
    57    26    55    1
    58    27    28    1
    59    27    56    1
    60    27    57    1
    61    28    58    1
    62    28    59    1
    63    29    30    1
    64    30    31    2
    65    30    60    1
    66    31    61    1
@<TRIPOS>SUBSTRUCTURE
     1 ZINC000438893617        1 TEMP              0 ****  ****    0 ROOT


##########                                Name:    ZINC001248546333
##########                DOCK_Rotatable_Bonds:                   6
##########                         Heavy_Atoms:                  27
##########                    Molecular_Weight:             378.397
##########                DOCK_Rotatable_Bonds:                   6
##########                       Formal_Charge:         3.94881e-07
##########                     HBond_Acceptors:                   8
##########                        HBond_Donors:                   1
##########                         Heavy_Atoms:                  27
##########                          Grid_Score:          -25.545013
##########                     Grid_vdw_energy:          -25.035297
##########                      Grid_es_energy:           -0.509717
##########           Internal_energy_repulsive:           29.424326

@<TRIPOS>MOLECULE
ZINC001248546333
 48 50 1 0 0
SMALL
USER_CHARGES


@<TRIPOS>ATOM
      1 C1         -9.2763    4.5102   64.1665 C.3     1  ZINC001248546333   -0.1200
      2 C2         -8.5898    3.4135   63.3939 C.ar    1  ZINC001248546333   -0.0800
      3 C3         -8.4567    2.1551   63.9525 C.ar    1  ZINC001248546333   -0.1200
      4 C4         -7.8278    1.1427   63.2497 C.ar    1  ZINC001248546333   -0.1100
      5 C5         -7.3296    1.3828   61.9858 C.ar    1  ZINC001248546333   -0.1100
      6 C6         -7.4611    2.6500   61.4164 C.ar    1  ZINC001248546333   -0.0600
      7 C7         -6.9297    2.9142   60.0626 C.2     1  ZINC001248546333   -0.0600
      8 C8         -6.3468    1.9245   59.4304 C.2     1  ZINC001248546333   -0.1700
      9 C9         -5.7475    2.0569   58.0579 C.3     1  ZINC001248546333    0.1500
     10 N10        -6.1556    3.3434   57.4754 N.am    1  ZINC001248546333   -0.6300
     11 C11        -6.5529    3.4366   56.1910 C.2     1  ZINC001248546333    0.7200
     12 O12        -6.8854    4.5132   55.7342 O.2     1  ZINC001248546333   -0.5800
     13 N13        -6.5817    2.3365   55.4129 N.am    1  ZINC001248546333   -0.7500
     14 C14        -7.0136    2.4379   54.0167 C.3     1  ZINC001248546333    0.2000
     15 C15        -7.6915    1.1561   53.6063 C.2     1  ZINC001248546333    0.0700
     16 C16        -8.9631    0.7971   53.8981 C.2     1  ZINC001248546333   -0.2000
     17 C17        -9.1959   -0.4606   53.3321 C.2     1  ZINC001248546333   -0.0200
     18 C18       -10.4832   -1.2402   53.4105 C.3     1  ZINC001248546333    0.5600
     19 F19       -10.6274   -2.0194   52.2576 F       1  ZINC001248546333   -0.1700
     20 F20       -10.4571   -2.0718   54.5352 F       1  ZINC001248546333   -0.1700
     21 F21       -11.5603   -0.3531   53.5114 F       1  ZINC001248546333   -0.1600
     22 N22        -8.1034   -0.8430   52.7224 N.2     1  ZINC001248546333   -0.2200
     23 N23        -7.1409    0.1632   52.8768 N.pl3   1  ZINC001248546333   -0.3400
     24 C24        -5.7751    0.1379   52.3475 C.3     1  ZINC001248546333    0.0900
     25 C25        -6.1124    4.5267   58.3519 C.3     1  ZINC001248546333    0.1300
     26 C26        -7.0987    4.2950   59.5019 C.3     1  ZINC001248546333   -0.1000
     27 C27        -8.1006    3.6651   62.1284 C.ar    1  ZINC001248546333   -0.1100
     28 H28       -10.3441    4.4949   63.9483 H       1  ZINC001248546333    0.0700
     29 H29        -9.1214    4.3544   65.2341 H       1  ZINC001248546333    0.0700
     30 H30        -8.8599    5.4748   63.8759 H       1  ZINC001248546333    0.0700
     31 H31        -8.8449    1.9620   64.9416 H       1  ZINC001248546333    0.1200
     32 H32        -7.7262    0.1625   63.6917 H       1  ZINC001248546333    0.1200
     33 H33        -6.8385    0.5918   61.4384 H       1  ZINC001248546333    0.1200
     34 H34        -6.2943    0.9639   59.9213 H       1  ZINC001248546333    0.1200
     35 H35        -4.6606    2.0181   58.1298 H       1  ZINC001248546333    0.0800
     36 H36        -6.1011    1.2423   57.4259 H       1  ZINC001248546333    0.0800
     37 H37        -6.3164    1.4776   55.7773 H       1  ZINC001248546333    0.4000
     38 H38        -7.7122    3.2681   53.9120 H       1  ZINC001248546333    0.1000
     39 H39        -6.1462    2.6104   53.3796 H       1  ZINC001248546333    0.0900
     40 H40        -9.6727    1.3788   54.4677 H       1  ZINC001248546333    0.1700
     41 H41        -5.7637    0.5771   51.3500 H       1  ZINC001248546333    0.0900
     42 H42        -5.1204    0.7107   53.0043 H       1  ZINC001248546333    0.1000
     43 H43        -5.4250   -0.8929   52.2947 H       1  ZINC001248546333    0.1000
     44 H44        -5.1046    4.6565   58.7464 H       1  ZINC001248546333    0.0700
     45 H45        -6.4058    5.4129   57.7893 H       1  ZINC001248546333    0.1000
     46 H46        -8.1172    4.4188   59.1337 H       1  ZINC001248546333    0.0800
     47 H47        -6.9118    5.0249   60.2895 H       1  ZINC001248546333    0.0900
     48 H48        -8.2056    4.6481   61.6932 H       1  ZINC001248546333    0.1200
@<TRIPOS>BOND
     1     1     2    1
     2     1    28    1
     3     1    29    1
     4     1    30    1
     5     2    27   ar
     6     2     3   ar
     7     3     4   ar
     8     3    31    1
     9     4     5   ar
    10     4    32    1
    11     5     6   ar
    12     5    33    1
    13     6     7    1
    14     6    27   ar
    15     7    26    1
    16     7     8    2
    17     8     9    1
    18     8    34    1
    19     9    10    1
    20     9    35    1
    21     9    36    1
    22    10    11   am
    23    10    25    1
    24    11    12    2
    25    11    13   am
    26    13    14    1
    27    13    37    1
    28    14    15    1
    29    14    38    1
    30    14    39    1
    31    15    23    1
    32    15    16    2
    33    16    17    1
    34    16    40    1
    35    17    18    1
    36    17    22    2
    37    18    19    1
    38    18    20    1
    39    18    21    1
    40    22    23    1
    41    23    24    1
    42    24    41    1
    43    24    42    1
    44    24    43    1
    45    25    26    1
    46    25    44    1
    47    25    45    1
    48    26    46    1
    49    26    47    1
    50    27    48    1
@<TRIPOS>SUBSTRUCTURE
     1 ZINC001248546333        1 TEMP              0 ****  ****    0 ROOT


##########                                Name:    ZINC000022858610
##########                DOCK_Rotatable_Bonds:                   9
##########                         Heavy_Atoms:                  26
##########                    Molecular_Weight:             369.343
##########                DOCK_Rotatable_Bonds:                   9
##########                       Formal_Charge:          0.00999956
##########                     HBond_Acceptors:                   9
##########                        HBond_Donors:                   2
##########                         Heavy_Atoms:                  26
##########                          Grid_Score:          -25.538305
##########                     Grid_vdw_energy:          -25.529369
##########                      Grid_es_energy:           -0.008936
##########           Internal_energy_repulsive:           21.488144

@<TRIPOS>MOLECULE
ZINC000022858610
 44 45 1 0 0
SMALL
USER_CHARGES


@<TRIPOS>ATOM
      1 C1         -0.6382    1.0731   40.9008 C.3     1  <0>         0.0100
      2 N2          0.7647    1.4458   40.6759 N.3     1  <0>        -0.5300
      3 C3          0.9300    2.9055   40.6875 C.3     1  <0>         0.0200
      4 C4          1.6439    0.8088   41.6654 C.3     1  <0>         0.1500
      5 H5          1.3033   -0.2097   41.8518 H       1  <0>         0.1200
      6 C6          1.6049    1.6063   42.9705 C.3     1  <0>         0.1300
      7 N7          2.0875    0.7672   44.0702 N.am    1  <0>        -0.6800
      8 C8          3.2634    1.0478   44.6660 C.2     1  <0>         0.5100
      9 O9          3.9218    1.9964   44.2927 O.2     1  <0>        -0.5100
     10 C10         3.7562    0.1913   45.7859 C.2     1  <0>         0.5200
     11 O11         4.9403   -0.0562   45.8850 O.2     1  <0>        -0.4900
     12 N12         2.8860   -0.3068   46.6866 N.am    1  <0>        -0.6500
     13 C13         3.3471   -1.1082   47.7343 C.ar    1  <0>         0.1900
     14 C14         3.6675   -2.4399   47.5032 C.ar    1  <0>        -0.1200
     15 C15         4.1229   -3.2291   48.5412 C.ar    1  <0>        -0.0700
     16 C16         4.2602   -2.6949   49.8092 C.ar    1  <0>        -0.1300
     17 C17         3.9416   -1.3694   50.0430 C.ar    1  <0>        -0.0500
     18 C18         3.4916   -0.5730   49.0086 C.ar    1  <0>        -0.2100
     19 C19         3.1448    0.8710   49.2641 C.3     1  <0>         0.5100
     20 F20         3.2433    1.1389   50.6337 F       1  <0>        -0.1700
     21 F21         4.0317    1.6948   48.5629 F       1  <0>        -0.1800
     22 F22         1.8372    1.1199   48.8332 F       1  <0>        -0.1700
     23 C23         3.0550    0.7779   41.1375 C.2     1  <0>        -0.0500
     24 C24         3.9427    1.7863   41.2058 C.2     1  <0>        -0.1900
     25 C25         5.1313    1.3279   40.5926 C.2     1  <0>        -0.2100
     26 C26         4.8989    0.0668   40.1863 C.2     1  <0>        -0.0400
     27 O27         3.6416   -0.2630   40.5241 O.3     1  <0>        -0.1700
     28 H28        -1.2414    1.4000   40.0538 H       1  <0>         0.0700
     29 H29        -0.7145   -0.0092   41.0049 H       1  <0>         0.0700
     30 H30        -1.0000    1.5520   41.8108 H       1  <0>         0.0500
     31 H31         0.6143    3.2994   41.6536 H       1  <0>         0.0300
     32 H32         1.9778    3.1539   40.5187 H       1  <0>         0.0700
     33 H33         0.3204    3.3464   39.8987 H       1  <0>         0.0800
     34 H34         2.2421    2.4859   42.8781 H       1  <0>         0.0900
     35 H35         0.5810    1.9193   43.1747 H       1  <0>         0.0800
     36 H36         1.5608    0.0097   44.3695 H       1  <0>         0.4200
     37 H37         1.9397   -0.1090   46.6075 H       1  <0>         0.4300
     38 H38         3.5603   -2.8578   46.5132 H       1  <0>         0.1500
     39 H39         4.3720   -4.2646   48.3623 H       1  <0>         0.1400
     40 H40         4.6165   -3.3143   50.6190 H       1  <0>         0.1400
     41 H41         4.0492   -0.9556   51.0347 H       1  <0>         0.1500
     42 H42         3.7786    2.7595   41.6443 H       1  <0>         0.1500
     43 H43         6.0496    1.8837   40.4731 H       1  <0>         0.1500
     44 H44         5.6050   -0.5733   39.6782 H       1  <0>         0.2000
@<TRIPOS>BOND
     1     1     2    1
     2     1    28    1
     3     1    29    1
     4     1    30    1
     5     2     3    1
     6     2     4    1
     7     3    31    1
     8     3    32    1
     9     3    33    1
    10     4     5    1
    11     4     6    1
    12     4    23    1
    13     6     7    1
    14     6    34    1
    15     6    35    1
    16     7     8   am
    17     7    36    1
    18     8     9    2
    19     8    10    1
    20    10    11    2
    21    10    12   am
    22    12    13    1
    23    12    37    1
    24    13    18   ar
    25    13    14   ar
    26    14    15   ar
    27    14    38    1
    28    15    16   ar
    29    15    39    1
    30    16    17   ar
    31    16    40    1
    32    17    18   ar
    33    17    41    1
    34    18    19    1
    35    19    20    1
    36    19    21    1
    37    19    22    1
    38    23    27    1
    39    23    24    2
    40    24    25    1
    41    24    42    1
    42    25    26    2
    43    25    43    1
    44    26    27    1
    45    26    44    1
@<TRIPOS>SUBSTRUCTURE
     1 <0>         1 TEMP              0 ****  ****    0 ROOT


##########                                Name:    ZINC000179743483
##########                DOCK_Rotatable_Bonds:                   5
##########                         Heavy_Atoms:                  23
##########                    Molecular_Weight:             393.347
##########                DOCK_Rotatable_Bonds:                   5
##########                       Formal_Charge:          -0.0199999
##########                     HBond_Acceptors:                   4
##########                        HBond_Donors:                   0
##########                         Heavy_Atoms:                  23
##########                          Grid_Score:          -25.535326
##########                     Grid_vdw_energy:          -25.333778
##########                      Grid_es_energy:           -0.201548
##########           Internal_energy_repulsive:           24.376202

@<TRIPOS>MOLECULE
ZINC000179743483
 44 46 1 0 0
SMALL
USER_CHARGES


@<TRIPOS>ATOM
      1 C1        -12.1961   -2.7701   58.4917 C.3     1  ZINC000179743483   -0.1400
      2 C2        -12.2200   -1.7098   57.3890 C.3     1  ZINC000179743483   -0.1000
      3 H3        -13.0460   -1.9131   56.7073 H       1  ZINC000179743483    0.1000
      4 C4        -12.4050   -0.3262   58.0157 C.3     1  ZINC000179743483   -0.0700
      5 C5        -11.2368   -0.0234   58.9183 C.ar    1  ZINC000179743483   -0.0600
      6 C6        -11.2708   -0.4093   60.2455 C.ar    1  ZINC000179743483   -0.1100
      7 C7        -10.1994   -0.1321   61.0736 C.ar    1  ZINC000179743483   -0.0900
      8 C8         -9.0931    0.5313   60.5743 C.ar    1  ZINC000179743483   -0.0900
      9 Br9        -7.6267    0.9101   61.7066 Br      1  ZINC000179743483   -0.0500
     10 C10        -9.0595    0.9171   59.2464 C.ar    1  ZINC000179743483   -0.0900
     11 C11       -10.1292    0.6349   58.4177 C.ar    1  ZINC000179743483   -0.1100
     12 C12       -10.9199   -1.7468   56.6280 C.2     1  ZINC000179743483    0.5200
     13 O13        -9.9368   -2.2479   57.1312 O.2     1  ZINC000179743483   -0.5300
     14 N14       -10.8496   -1.2231   55.3881 N.am    1  ZINC000179743483   -0.6100
     15 C15       -12.0320   -0.6126   54.7652 C.3     1  ZINC000179743483    0.1000
     16 C16       -11.6715    0.8037   54.3059 C.3     1  ZINC000179743483   -0.1400
     17 C17       -10.4424    0.7433   53.3961 C.3     1  ZINC000179743483   -0.1100
     18 C18        -9.2561    0.1718   54.1759 C.3     1  ZINC000179743483   -0.0200
     19 H19        -9.0578    0.7970   55.0465 H       1  ZINC000179743483    0.0900
     20 C20        -8.0379    0.1436   53.2891 C.2     1  ZINC000179743483    0.0500
     21 N21        -7.6871   -0.8523   52.5477 N.2     1  ZINC000179743483   -0.4700
     22 C22        -6.5905   -0.7107   51.8306 C.2     1  ZINC000179743483    0.0400
     23 C23        -5.9825    0.4705   51.9754 C.2     1  ZINC000179743483   -0.2600
     24 S24        -6.9246    1.4295   53.1145 S.3     1  ZINC000179743483    0.1300
     25 C25        -9.5875   -1.2462   54.6361 C.3     1  ZINC000179743483    0.1200
     26 H26       -11.3256   -2.6123   59.1286 H       1  ZINC000179743483    0.0700
     27 H27       -13.1034   -2.6921   59.0906 H       1  ZINC000179743483    0.0700
     28 H28       -12.1419   -3.7613   58.0415 H       1  ZINC000179743483    0.0600
     29 H29       -12.4598    0.4251   57.2281 H       1  ZINC000179743483    0.0900
     30 H30       -13.3268   -0.3112   58.5971 H       1  ZINC000179743483    0.0800
     31 H31       -12.1348   -0.9269   60.6353 H       1  ZINC000179743483    0.1300
     32 H32       -10.2262   -0.4332   62.1104 H       1  ZINC000179743483    0.1300
     33 H33        -8.1960    1.4351   58.8562 H       1  ZINC000179743483    0.1300
     34 H34       -10.1030    0.9361   57.3808 H       1  ZINC000179743483    0.1300
     35 H35       -12.3406   -1.2080   53.9059 H       1  ZINC000179743483    0.0700
     36 H36       -12.8441   -0.5659   55.4907 H       1  ZINC000179743483    0.0900
     37 H37       -12.5098    1.2325   53.7568 H       1  ZINC000179743483    0.0800
     38 H38       -11.4506    1.4229   55.1753 H       1  ZINC000179743483    0.0700
     39 H39       -10.6557    0.1039   52.5395 H       1  ZINC000179743483    0.0800
     40 H40       -10.1985    1.7470   53.0481 H       1  ZINC000179743483    0.0700
     41 H41        -6.2139   -1.4858   51.1797 H       1  ZINC000179743483    0.1800
     42 H42        -5.0758    0.7835   51.4789 H       1  ZINC000179743483    0.1800
     43 H43        -8.7870   -1.6197   55.2748 H       1  ZINC000179743483    0.0900
     44 H44        -9.6982   -1.8958   53.7679 H       1  ZINC000179743483    0.0800
@<TRIPOS>BOND
     1     1     2    1
     2     1    26    1
     3     1    27    1
     4     1    28    1
     5     2     3    1
     6     2     4    1
     7     2    12    1
     8     4     5    1
     9     4    29    1
    10     4    30    1
    11     5    11   ar
    12     5     6   ar
    13     6     7   ar
    14     6    31    1
    15     7     8   ar
    16     7    32    1
    17     8     9    1
    18     8    10   ar
    19    10    11   ar
    20    10    33    1
    21    11    34    1
    22    12    13    2
    23    12    14   am
    24    14    25    1
    25    14    15    1
    26    15    16    1
    27    15    35    1
    28    15    36    1
    29    16    17    1
    30    16    37    1
    31    16    38    1
    32    17    18    1
    33    17    39    1
    34    17    40    1
    35    18    19    1
    36    18    20    1
    37    18    25    1
    38    20    24    1
    39    20    21    2
    40    21    22    1
    41    22    23    2
    42    22    41    1
    43    23    24    1
    44    23    42    1
    45    25    43    1
    46    25    44    1
@<TRIPOS>SUBSTRUCTURE
     1 ZINC000179743483        1 TEMP              0 ****  ****    0 ROOT


##########                                Name:    ZINC000163855860
##########                DOCK_Rotatable_Bonds:                   6
##########                         Heavy_Atoms:                  28
##########                    Molecular_Weight:             398.483
##########                DOCK_Rotatable_Bonds:                   6
##########                       Formal_Charge:          -0.0100004
##########                     HBond_Acceptors:                   7
##########                        HBond_Donors:                   1
##########                         Heavy_Atoms:                  28
##########                          Grid_Score:          -25.508532
##########                     Grid_vdw_energy:          -23.791962
##########                      Grid_es_energy:           -1.716570
##########           Internal_energy_repulsive:           14.717117

@<TRIPOS>MOLECULE
ZINC000163855860
 50 53 1 0 0
SMALL
USER_CHARGES


@<TRIPOS>ATOM
      1 C1         -8.2544    1.9352   55.4669 C.3     1  ZINC000163855860   -0.1300
      2 C2         -7.9250    0.9556   54.3702 C.ar    1  ZINC000163855860   -0.0600
      3 C3         -6.7762    1.1207   53.6124 C.ar    1  ZINC000163855860    0.1400
      4 N4         -5.9198    2.1982   53.8656 N.am    1  ZINC000163855860   -0.6700
      5 C5         -6.0174    3.3239   53.1308 C.2     1  ZINC000163855860    0.5100
      6 O6         -6.8476    3.4030   52.2502 O.2     1  ZINC000163855860   -0.5100
      7 C7         -5.0952    4.4840   53.4036 C.3     1  ZINC000163855860   -0.1300
      8 C8         -3.7405    3.9573   53.8813 C.3     1  ZINC000163855860   -0.1100
      9 H9         -3.8624    3.2788   54.7257 H       1  ZINC000163855860    0.1100
     10 C10        -2.9795    3.2677   52.7262 C.3     1  ZINC000163855860    0.0600
     11 O11        -1.5775    3.5825   52.9752 O.3     1  ZINC000163855860   -0.3500
     12 C12        -1.4780    4.7731   53.5834 C.2     1  ZINC000163855860    0.4800
     13 O13        -0.4866    5.4634   53.6014 O.2     1  ZINC000163855860   -0.4500
     14 C14        -2.7937    5.1228   54.2443 C.3     1  ZINC000163855860   -0.1800
     15 C15        -6.4719    0.2129   52.6049 C.ar    1  ZINC000163855860   -0.1100
     16 C16        -7.3139   -0.8534   52.3515 C.ar    1  ZINC000163855860   -0.1100
     17 C17        -8.4628   -1.0240   53.0973 C.ar    1  ZINC000163855860   -0.1000
     18 C18        -8.7776   -0.1176   54.1110 C.ar    1  ZINC000163855860   -0.1100
     19 C19       -10.0074   -0.2982   54.9118 C.2     1  ZINC000163855860    0.5700
     20 O20        -9.9786   -0.9649   55.9277 O.2     1  ZINC000163855860   -0.5300
     21 N21       -11.1601    0.2765   54.5154 N.am    1  ZINC000163855860   -0.6100
     22 C22       -11.2169    1.0871   53.2896 C.3     1  ZINC000163855860    0.1200
     23 C23       -12.1354    0.3766   52.2830 C.3     1  ZINC000163855860   -0.0600
     24 C24       -13.3929   -0.0749   52.9949 C.2     1  ZINC000163855860   -0.1700
     25 C25       -13.5242   -0.2020   54.3290 C.2     1  ZINC000163855860   -0.1300
     26 C26       -14.7805   -0.6451   54.7300 C.2     1  ZINC000163855860   -0.1200
     27 C27       -15.6515   -0.8684   53.7510 C.2     1  ZINC000163855860   -0.2100
     28 S28       -14.8994   -0.5180   52.2020 S.3     1  ZINC000163855860    0.1100
     29 C29       -12.3924    0.1146   55.2999 C.3     1  ZINC000163855860    0.1700
     30 H30        -8.9323    2.6971   55.0820 H       1  ZINC000163855860    0.0700
     31 H31        -8.7315    1.4084   56.2933 H       1  ZINC000163855860    0.0900
     32 H32        -7.3377    2.4086   55.8187 H       1  ZINC000163855860    0.0700
     33 H33        -5.2559    2.1349   54.5701 H       1  ZINC000163855860    0.4100
     34 H34        -5.5300    5.1204   54.1744 H       1  ZINC000163855860    0.1100
     35 H35        -4.9585    5.0621   52.4897 H       1  ZINC000163855860    0.1100
     36 H36        -3.2960    3.6741   51.7656 H       1  ZINC000163855860    0.0800
     37 H37        -3.1384    2.1897   52.7555 H       1  ZINC000163855860    0.1200
     38 H38        -2.6697    5.1884   55.3252 H       1  ZINC000163855860    0.1200
     39 H39        -3.1793    6.0623   53.8481 H       1  ZINC000163855860    0.1200
     40 H40        -5.5742    0.3409   52.0183 H       1  ZINC000163855860    0.1500
     41 H41        -7.0720   -1.5558   51.5676 H       1  ZINC000163855860    0.1300
     42 H42        -9.1182   -1.8584   52.8962 H       1  ZINC000163855860    0.1300
     43 H43       -11.6180    2.0737   53.5214 H       1  ZINC000163855860    0.0800
     44 H44       -10.2159    1.1855   52.8692 H       1  ZINC000163855860    0.1000
     45 H45       -11.6215   -0.4895   51.8661 H       1  ZINC000163855860    0.0900
     46 H46       -12.3984    1.0657   51.4804 H       1  ZINC000163855860    0.0900
     47 H47       -15.0318   -0.7978   55.7692 H       1  ZINC000163855860    0.1400
     48 H48       -16.6663   -1.2121   53.8868 H       1  ZINC000163855860    0.1700
     49 H49       -12.2738   -0.7051   56.0086 H       1  ZINC000163855860    0.1000
     50 H50       -12.6124    1.0374   55.8366 H       1  ZINC000163855860    0.0900
@<TRIPOS>BOND
     1     1     2    1
     2     1    30    1
     3     1    31    1
     4     1    32    1
     5     2    18   ar
     6     2     3   ar
     7     3     4    1
     8     3    15   ar
     9     4     5   am
    10     4    33    1
    11     5     6    2
    12     5     7    1
    13     7     8    1
    14     7    34    1
    15     7    35    1
    16     8     9    1
    17     8    14    1
    18     8    10    1
    19    10    11    1
    20    10    36    1
    21    10    37    1
    22    11    12    1
    23    12    13    2
    24    12    14    1
    25    14    38    1
    26    14    39    1
    27    15    16   ar
    28    15    40    1
    29    16    17   ar
    30    16    41    1
    31    17    18   ar
    32    17    42    1
    33    18    19    1
    34    19    20    2
    35    19    21   am
    36    21    29    1
    37    21    22    1
    38    22    23    1
    39    22    43    1
    40    22    44    1
    41    23    24    1
    42    23    45    1
    43    23    46    1
    44    24    28    1
    45    24    25    2
    46    25    26    1
    47    25    29    1
    48    26    27    2
    49    26    47    1
    50    27    28    1
    51    27    48    1
    52    29    49    1
    53    29    50    1
@<TRIPOS>SUBSTRUCTURE
     1 ZINC000163855860        1 TEMP              0 ****  ****    0 ROOT


##########                                Name:    ZINC001110536231
##########                DOCK_Rotatable_Bonds:                   8
##########                         Heavy_Atoms:                  24
##########                    Molecular_Weight:             329.442
##########                DOCK_Rotatable_Bonds:                   8
##########                       Formal_Charge:          -0.0400001
##########                     HBond_Acceptors:                   5
##########                        HBond_Donors:                   1
##########                         Heavy_Atoms:                  24
##########                          Grid_Score:          -25.504129
##########                     Grid_vdw_energy:          -25.677343
##########                      Grid_es_energy:            0.173214
##########           Internal_energy_repulsive:           24.458788

@<TRIPOS>MOLECULE
ZINC001110536231
 51 53 1 0 0
SMALL
USER_CHARGES


@<TRIPOS>ATOM
      1 C1        -15.6246   -3.2093   58.5621 C.3     1  ZINC001110536231   -0.1300
      2 C2        -15.4938   -1.6862   58.4989 C.3     1  ZINC001110536231   -0.1000
      3 C3        -14.2177   -1.2630   59.1798 C.2     1  ZINC001110536231   -0.0200
      4 C4        -14.2734   -0.5171   60.4881 C.3     1  ZINC001110536231   -0.1300
      5 C5        -13.0424   -1.5477   58.6261 C.2     1  ZINC001110536231   -0.2400
      6 C6        -11.7970   -1.1345   59.2909 C.2     1  ZINC001110536231    0.5400
      7 O7        -11.3065   -1.8367   60.1542 O.2     1  ZINC001110536231   -0.5300
      8 N8        -11.1994    0.0225   58.9433 N.am    1  ZINC001110536231   -0.7300
      9 C9         -9.9581    0.4332   59.6041 C.3     1  ZINC001110536231    0.1100
     10 H10       -10.0451    0.3219   60.6849 H       1  ZINC001110536231    0.1000
     11 C11        -9.6005    1.8934   59.2336 C.3     1  ZINC001110536231   -0.1600
     12 C12        -8.2239    1.7603   58.5152 C.3     1  ZINC001110536231    0.0500
     13 H13        -7.9508    2.5903   57.8636 H       1  ZINC001110536231    0.1200
     14 C14        -7.2063    1.4320   59.6492 C.3     1  ZINC001110536231   -0.1200
     15 C15        -7.5546   -0.0259   60.0371 C.3     1  ZINC001110536231   -0.1100
     16 C16        -8.7503   -0.3901   59.0632 C.3     1  ZINC001110536231    0.0400
     17 H17        -8.9207   -1.4550   58.9049 H       1  ZINC001110536231    0.1200
     18 N18        -8.3773    0.4203   57.8440 N.3     1  ZINC001110536231   -0.4900
     19 C19        -9.4708    0.4290   56.8630 C.3     1  ZINC001110536231    0.0600
     20 C20        -8.8971    0.3631   55.4710 C.ar    1  ZINC001110536231    0.0100
     21 C21        -9.0950   -0.7556   54.6739 C.ar    1  ZINC001110536231   -0.2100
     22 C22        -8.5559   -0.7834   53.4029 C.ar    1  ZINC001110536231    0.1400
     23 N23        -7.8587    0.2372   52.9416 N.ar    1  ZINC001110536231   -0.5400
     24 C24        -7.6486    1.3206   53.6710 C.ar    1  ZINC001110536231    0.3200
     25 O25        -6.9259    2.3472   53.1566 O.3     1  ZINC001110536231   -0.3100
     26 C26        -5.8268    2.0063   52.3094 C.3     1  ZINC001110536231    0.0400
     27 C27        -8.1655    1.4195   54.9562 C.ar    1  ZINC001110536231   -0.1700
     28 H28       -16.5475   -3.5154   58.0695 H       1  ZINC001110536231    0.0500
     29 H29       -14.7742   -3.6682   58.0578 H       1  ZINC001110536231    0.0700
     30 H30       -15.6452   -3.5293   59.6038 H       1  ZINC001110536231    0.0400
     31 H31       -15.4731   -1.3661   57.4571 H       1  ZINC001110536231    0.0900
     32 H32       -16.3442   -1.2273   59.0032 H       1  ZINC001110536231    0.0600
     33 H33       -14.2628   -1.2294   61.3132 H       1  ZINC001110536231    0.0800
     34 H34       -13.4096    0.1431   60.5670 H       1  ZINC001110536231    0.0700
     35 H35       -15.1879    0.0744   60.5305 H       1  ZINC001110536231    0.0700
     36 H36       -13.0026   -2.0821   57.6885 H       1  ZINC001110536231    0.1200
     37 H37       -11.5912    0.5833   58.2556 H       1  ZINC001110536231    0.4000
     38 H38       -10.3468    2.3116   58.5582 H       1  ZINC001110536231    0.0700
     39 H39        -9.5076    2.5052   60.1308 H       1  ZINC001110536231    0.0800
     40 H40        -6.1836    1.4964   59.2775 H       1  ZINC001110536231    0.0700
     41 H41        -7.3497    2.0998   60.4986 H       1  ZINC001110536231    0.0700
     42 H42        -6.7045   -0.6842   59.8578 H       1  ZINC001110536231    0.0800
     43 H43        -7.8706   -0.0807   61.0788 H       1  ZINC001110536231    0.0700
     44 H44       -10.1165   -0.4329   57.0310 H       1  ZINC001110536231    0.0900
     45 H45       -10.0511    1.3450   56.9738 H       1  ZINC001110536231    0.0700
     46 H46        -9.6642   -1.5956   55.0438 H       1  ZINC001110536231    0.1300
     47 H47        -8.7068   -1.6517   52.7786 H       1  ZINC001110536231    0.1600
     48 H48        -5.3357    2.9173   51.9671 H       1  ZINC001110536231    0.1000
     49 H49        -5.1147    1.3966   52.8656 H       1  ZINC001110536231    0.0600
     50 H50        -6.1915    1.4450   51.4491 H       1  ZINC001110536231    0.0600
     51 H51        -7.9924    2.3056   55.5489 H       1  ZINC001110536231    0.1400
@<TRIPOS>BOND
     1     1     2    1
     2     1    28    1
     3     1    29    1
     4     1    30    1
     5     2     3    1
     6     2    31    1
     7     2    32    1
     8     3     4    1
     9     3     5    2
    10     4    33    1
    11     4    34    1
    12     4    35    1
    13     5     6    1
    14     5    36    1
    15     6     7    2
    16     6     8   am
    17     8     9    1
    18     8    37    1
    19     9    10    1
    20     9    16    1
    21     9    11    1
    22    11    12    1
    23    11    38    1
    24    11    39    1
    25    12    13    1
    26    12    18    1
    27    12    14    1
    28    14    15    1
    29    14    40    1
    30    14    41    1
    31    15    16    1
    32    15    42    1
    33    15    43    1
    34    16    17    1
    35    16    18    1
    36    18    19    1
    37    19    20    1
    38    19    44    1
    39    19    45    1
    40    20    27   ar
    41    20    21   ar
    42    21    22   ar
    43    21    46    1
    44    22    23   ar
    45    22    47    1
    46    23    24   ar
    47    24    25    1
    48    24    27   ar
    49    25    26    1
    50    26    48    1
    51    26    49    1
    52    26    50    1
    53    27    51    1
@<TRIPOS>SUBSTRUCTURE
     1 ZINC001110536231        1 TEMP              0 ****  ****    0 ROOT


##########                                Name:    ZINC000151850193
##########                DOCK_Rotatable_Bonds:                  11
##########                         Heavy_Atoms:                  23
##########                    Molecular_Weight:             328.452
##########                DOCK_Rotatable_Bonds:                  11
##########                       Formal_Charge:            0.039999
##########                     HBond_Acceptors:                   6
##########                        HBond_Donors:                   2
##########                         Heavy_Atoms:                  23
##########                          Grid_Score:          -25.498997
##########                     Grid_vdw_energy:          -23.369328
##########                      Grid_es_energy:           -2.129668
##########           Internal_energy_repulsive:           69.529747

@<TRIPOS>MOLECULE
ZINC000151850193
 55 55 1 0 0
SMALL
USER_CHARGES


@<TRIPOS>ATOM
      1 C1        -10.1668   -3.4331   57.3039 C.3     1  ZINC000151850193   -0.1500
      2 C2        -10.5965   -2.0159   56.9193 C.3     1  ZINC000151850193   -0.1000
      3 C3        -10.5054   -1.1050   58.1453 C.3     1  ZINC000151850193   -0.0800
      4 C4        -11.2644   -1.6572   59.3535 C.3     1  ZINC000151850193   -0.1000
      5 C5        -12.7440   -1.8153   58.9975 C.3     1  ZINC000151850193   -0.1500
      6 C6         -9.0724   -0.6514   58.4704 C.3     1  ZINC000151850193    0.1400
      7 H7         -8.3051   -1.3358   58.1088 H       1  ZINC000151850193    0.1000
      8 N8         -8.8810   -0.2714   59.8722 N.am    1  ZINC000151850193   -0.7000
      9 C9         -7.6476    0.0249   60.3278 C.2     1  ZINC000151850193    0.5200
     10 O10        -6.6961   -0.0245   59.5774 O.2     1  ZINC000151850193   -0.5300
     11 C11        -7.4509    0.4174   61.7694 C.3     1  ZINC000151850193   -0.1500
     12 C12        -7.5714    1.9366   61.9053 C.3     1  ZINC000151850193    0.1500
     13 N13        -7.0345    2.3549   63.2026 N.am    1  ZINC000151850193   -0.7100
     14 C14        -7.7579    2.1657   64.3240 C.2     1  ZINC000151850193    0.6500
     15 O15        -8.8560    1.6497   64.2588 O.2     1  ZINC000151850193   -0.5600
     16 O16        -7.2637    2.5487   65.5164 O.3     1  ZINC000151850193   -0.3700
     17 C17        -6.1071    3.4263   65.4993 C.3     1  ZINC000151850193    0.1400
     18 C18        -5.7942    3.8856   66.9248 C.3     1  ZINC000151850193   -0.1800
     19 C19        -4.9033    2.6724   64.9307 C.3     1  ZINC000151850193   -0.1400
     20 C20        -6.4049    4.6457   64.6244 C.3     1  ZINC000151850193   -0.1800
     21 C21        -9.3225    0.5434   57.5350 C.3     1  ZINC000151850193   -0.1700
     22 C22       -10.8193    0.3695   57.8418 C.3     1  ZINC000151850193    0.0700
     23 H23       -11.4623    0.5092   56.9727 H       1  ZINC000151850193    0.0800
     24 O24       -11.2596    1.1093   58.9824 O.3     1  ZINC000151850193   -0.3700
     25 C25       -11.8546    2.3689   58.6639 C.3     1  ZINC000151850193    0.0300
     26 H26        -9.1290   -3.4203   57.6370 H       1  ZINC000151850193    0.0600
     27 H27       -10.8026   -3.7994   58.1099 H       1  ZINC000151850193    0.0600
     28 H28       -10.2627   -4.0892   56.4387 H       1  ZINC000151850193    0.0600
     29 H29        -9.9403   -1.6373   56.1357 H       1  ZINC000151850193    0.0700
     30 H30       -11.6239   -2.0338   56.5557 H       1  ZINC000151850193    0.0700
     31 H31       -10.8514   -2.6274   59.6296 H       1  ZINC000151850193    0.0700
     32 H32       -11.1641   -0.9677   60.1917 H       1  ZINC000151850193    0.0700
     33 H33       -13.1750   -0.8354   58.7920 H       1  ZINC000151850193    0.0500
     34 H34       -12.8397   -2.4468   58.1141 H       1  ZINC000151850193    0.0500
     35 H35       -13.2714   -2.2764   59.8326 H       1  ZINC000151850193    0.0500
     36 H36        -9.6419   -0.2331   60.4726 H       1  ZINC000151850193    0.4100
     37 H37        -8.2118   -0.0638   62.3839 H       1  ZINC000151850193    0.1000
     38 H38        -6.4622    0.1002   62.1008 H       1  ZINC000151850193    0.1000
     39 H39        -7.0081    2.4187   61.1063 H       1  ZINC000151850193    0.0800
     40 H40        -8.6201    2.2256   61.8360 H       1  ZINC000151850193    0.0800
     41 H41        -6.1584    2.7680   63.2545 H       1  ZINC000151850193    0.4100
     42 H42        -5.5820    3.0169   67.5480 H       1  ZINC000151850193    0.0600
     43 H43        -4.9259    4.5444   66.9119 H       1  ZINC000151850193    0.0700
     44 H44        -6.6518    4.4227   67.3300 H       1  ZINC000151850193    0.0900
     45 H45        -5.1261    2.3452   63.9151 H       1  ZINC000151850193    0.0700
     46 H46        -4.0350    3.3312   64.9178 H       1  ZINC000151850193    0.0800
     47 H47        -4.6911    1.8037   65.5539 H       1  ZINC000151850193    0.0700
     48 H48        -7.2625    5.1827   65.0295 H       1  ZINC000151850193    0.0900
     49 H49        -5.5366    5.3045   64.6116 H       1  ZINC000151850193    0.0700
     50 H50        -6.6278    4.3185   63.6088 H       1  ZINC000151850193    0.0600
     51 H51        -8.9072    1.4812   57.9040 H       1  ZINC000151850193    0.0800
     52 H52        -9.0641    0.3451   56.4948 H       1  ZINC000151850193    0.1000
     53 H53       -11.1300    2.9903   58.1376 H       1  ZINC000151850193    0.0400
     54 H54       -12.7256    2.2091   58.0284 H       1  ZINC000151850193    0.0400
     55 H55       -12.1619    2.8683   59.5828 H       1  ZINC000151850193    0.0900
@<TRIPOS>BOND
     1     1     2    1
     2     1    26    1
     3     1    27    1
     4     1    28    1
     5     2     3    1
     6     2    29    1
     7     2    30    1
     8     3    22    1
     9     3     4    1
    10     3     6    1
    11     4     5    1
    12     4    31    1
    13     4    32    1
    14     5    33    1
    15     5    34    1
    16     5    35    1
    17     6     7    1
    18     6     8    1
    19     6    21    1
    20     8     9   am
    21     8    36    1
    22     9    10    2
    23     9    11    1
    24    11    12    1
    25    11    37    1
    26    11    38    1
    27    12    13    1
    28    12    39    1
    29    12    40    1
    30    13    14   am
    31    13    41    1
    32    14    15    2
    33    14    16    1
    34    16    17    1
    35    17    18    1
    36    17    19    1
    37    17    20    1
    38    18    42    1
    39    18    43    1
    40    18    44    1
    41    19    45    1
    42    19    46    1
    43    19    47    1
    44    20    48    1
    45    20    49    1
    46    20    50    1
    47    21    22    1
    48    21    51    1
    49    21    52    1
    50    22    23    1
    51    22    24    1
    52    24    25    1
    53    25    53    1
    54    25    54    1
    55    25    55    1
@<TRIPOS>SUBSTRUCTURE
     1 ZINC000151850193        1 TEMP              0 ****  ****    0 ROOT


##########                                Name:    ZINC001220212140
##########                DOCK_Rotatable_Bonds:                   6
##########                         Heavy_Atoms:                  28
##########                    Molecular_Weight:             379.459
##########                DOCK_Rotatable_Bonds:                   6
##########                       Formal_Charge:         -0.00999925
##########                     HBond_Acceptors:                   6
##########                        HBond_Donors:                   1
##########                         Heavy_Atoms:                  28
##########                          Grid_Score:          -25.483330
##########                     Grid_vdw_energy:          -24.015472
##########                      Grid_es_energy:           -1.467857
##########           Internal_energy_repulsive:          171.243484

@<TRIPOS>MOLECULE
ZINC001220212140
 53 56 1 0 0
SMALL
USER_CHARGES


@<TRIPOS>ATOM
      1 C1         -5.2639    0.6464   52.0319 C.3     1  ZINC001220212140   -0.1700
      2 C2         -5.9102    2.0301   52.1240 C.3     1  ZINC001220212140    0.0800
      3 H3         -6.0162    2.4718   51.1331 H       1  ZINC001220212140    0.1200
      4 C4         -7.2807    1.9485   52.8370 C.3     1  ZINC001220212140   -0.1100
      5 C5         -6.9020    2.2330   54.2778 C.ar    1  ZINC001220212140   -0.1500
      6 C6         -7.5772    2.0484   55.4631 C.ar    1  ZINC001220212140   -0.0700
      7 C7         -6.9753    2.3988   56.6656 C.ar    1  ZINC001220212140    0.1400
      8 N8         -7.6575    2.2128   57.8756 N.am    1  ZINC001220212140   -0.6800
      9 C9         -7.1846    1.3420   58.7890 C.2     1  ZINC001220212140    0.7200
     10 O10        -6.1659    0.7176   58.5632 O.2     1  ZINC001220212140   -0.5700
     11 N11        -7.8406    1.1632   59.9526 N.am    1  ZINC001220212140   -0.6300
     12 C12        -7.4377    0.2495   61.0318 C.3     1  ZINC001220212140    0.0900
     13 C13        -8.4690    0.4014   62.1696 C.3     1  ZINC001220212140   -0.1100
     14 C14        -9.0766    1.8039   61.9030 C.3     1  ZINC001220212140   -0.1300
     15 H15        -8.4437    2.5890   62.3166 H       1  ZINC001220212140    0.1200
     16 C16       -10.4774    1.8988   62.4507 C.2     1  ZINC001220212140    0.5300
     17 O17       -11.4234    1.6059   61.7504 O.2     1  ZINC001220212140   -0.5100
     18 N18       -10.6789    2.3091   63.7186 N.am    1  ZINC001220212140   -0.5700
     19 C19        -9.5362    2.6629   64.5643 C.3     1  ZINC001220212140    0.0700
     20 C20       -11.9795    2.3972   64.2270 C.ar    1  ZINC001220212140    0.1400
     21 C21       -12.1893    2.8263   65.5310 C.ar    1  ZINC001220212140   -0.1100
     22 C22       -13.4743    2.9122   66.0299 C.ar    1  ZINC001220212140   -0.1100
     23 C23       -14.5513    2.5710   65.2325 C.ar    1  ZINC001220212140   -0.1200
     24 C24       -14.3457    2.1429   63.9339 C.ar    1  ZINC001220212140   -0.1100
     25 C25       -13.0637    2.0611   63.4268 C.ar    1  ZINC001220212140   -0.1200
     26 C26        -9.0775    1.8559   60.3570 C.3     1  ZINC001220212140    0.1400
     27 C27        -5.6943    2.9334   56.6613 C.ar    1  ZINC001220212140   -0.1100
     28 C28        -5.0226    3.1200   55.4713 C.ar    1  ZINC001220212140   -0.1200
     29 C29        -5.6226    2.7739   54.2634 C.ar    1  ZINC001220212140    0.0900
     30 O30        -5.1485    2.8916   52.9868 O.3     1  ZINC001220212140   -0.3000
     31 H31        -5.1560    0.2284   53.0328 H       1  ZINC001220212140    0.0600
     32 H32        -5.8934   -0.0094   51.4303 H       1  ZINC001220212140    0.0800
     33 H33        -4.2820    0.7342   51.5671 H       1  ZINC001220212140    0.0700
     34 H34        -7.9635    2.7081   52.4565 H       1  ZINC001220212140    0.0900
     35 H35        -7.7130    0.9530   52.7372 H       1  ZINC001220212140    0.0900
     36 H36        -8.5736    1.6317   55.4585 H       1  ZINC001220212140    0.1400
     37 H37        -8.4701    2.7110   58.0558 H       1  ZINC001220212140    0.4100
     38 H38        -7.4369   -0.7777   60.6668 H       1  ZINC001220212140    0.0700
     39 H39        -6.4448    0.5175   61.3930 H       1  ZINC001220212140    0.0700
     40 H40        -9.2356   -0.3704   62.1010 H       1  ZINC001220212140    0.1000
     41 H41        -7.9774    0.3726   63.1421 H       1  ZINC001220212140    0.0900
     42 H42        -9.3139    3.7238   64.4495 H       1  ZINC001220212140    0.0700
     43 H43        -9.7767    2.4530   65.6065 H       1  ZINC001220212140    0.0800
     44 H44        -8.6678    2.0754   64.2663 H       1  ZINC001220212140    0.0800
     45 H45       -11.3485    3.0923   66.1544 H       1  ZINC001220212140    0.1200
     46 H46       -13.6380    3.2459   67.0439 H       1  ZINC001220212140    0.1300
     47 H47       -15.5552    2.6386   65.6251 H       1  ZINC001220212140    0.1300
     48 H48       -15.1890    1.8764   63.3139 H       1  ZINC001220212140    0.1300
     49 H49       -12.9037    1.7267   62.4125 H       1  ZINC001220212140    0.1200
     50 H50        -9.0673    2.8899   60.0122 H       1  ZINC001220212140    0.0900
     51 H51        -9.9467    1.3315   59.9603 H       1  ZINC001220212140    0.0700
     52 H52        -5.2219    3.2048   57.5938 H       1  ZINC001220212140    0.1300
     53 H53        -4.0261    3.5365   55.4764 H       1  ZINC001220212140    0.1300
@<TRIPOS>BOND
     1     1     2    1
     2     1    31    1
     3     1    32    1
     4     1    33    1
     5     2     3    1
     6     2    30    1
     7     2     4    1
     8     4     5    1
     9     4    34    1
    10     4    35    1
    11     5    29   ar
    12     5     6   ar
    13     6     7   ar
    14     6    36    1
    15     7     8    1
    16     7    27   ar
    17     8     9   am
    18     8    37    1
    19     9    10    2
    20     9    11   am
    21    11    26    1
    22    11    12    1
    23    12    13    1
    24    12    38    1
    25    12    39    1
    26    13    14    1
    27    13    40    1
    28    13    41    1
    29    14    15    1
    30    14    16    1
    31    14    26    1
    32    16    17    2
    33    16    18   am
    34    18    19    1
    35    18    20    1
    36    19    42    1
    37    19    43    1
    38    19    44    1
    39    20    25   ar
    40    20    21   ar
    41    21    22   ar
    42    21    45    1
    43    22    23   ar
    44    22    46    1
    45    23    24   ar
    46    23    47    1
    47    24    25   ar
    48    24    48    1
    49    25    49    1
    50    26    50    1
    51    26    51    1
    52    27    28   ar
    53    27    52    1
    54    28    29   ar
    55    28    53    1
    56    29    30    1
@<TRIPOS>SUBSTRUCTURE
     1 ZINC001220212140        1 TEMP              0 ****  ****    0 ROOT


##########                                Name:    ZINC001011267435
##########                DOCK_Rotatable_Bonds:                   7
##########                         Heavy_Atoms:                  24
##########                    Molecular_Weight:             331.458
##########                DOCK_Rotatable_Bonds:                   7
##########                       Formal_Charge:        -4.47035e-08
##########                     HBond_Acceptors:                   5
##########                        HBond_Donors:                   0
##########                         Heavy_Atoms:                  24
##########                          Grid_Score:          -25.467354
##########                     Grid_vdw_energy:          -25.701109
##########                      Grid_es_energy:            0.233755
##########           Internal_energy_repulsive:           38.494068

@<TRIPOS>MOLECULE
ZINC001011267435
 53 54 1 0 0
SMALL
USER_CHARGES


@<TRIPOS>ATOM
      1 C1         -0.0357    4.7735   54.6596 C.3     1  ZINC001011267435   -0.1500
      2 C2         -0.9614    4.1721   53.6003 C.3     1  ZINC001011267435   -0.1200
      3 C3         -2.3855    4.0916   54.1537 C.3     1  ZINC001011267435   -0.0700
      4 C4         -3.2970    3.4980   53.1107 C.ar    1  ZINC001011267435    0.1300
      5 C5         -4.6382    3.8279   53.1109 C.ar    1  ZINC001011267435   -0.1200
      6 C6         -5.4738    3.2705   52.1379 C.ar    1  ZINC001011267435   -0.0800
      7 C7         -6.9186    3.5954   52.0982 C.2     1  ZINC001011267435    0.5600
      8 O8         -7.2885    4.6679   51.6627 O.2     1  ZINC001011267435   -0.5200
      9 N9         -7.8228    2.7015   52.5452 N.am    1  ZINC001011267435   -0.6100
     10 C10        -7.3896    1.4031   53.0801 C.3     1  ZINC001011267435    0.0700
     11 C11        -7.9637    1.2388   54.4928 C.3     1  ZINC001011267435    0.1000
     12 N12        -9.4005    1.5452   54.4544 N.am    1  ZINC001011267435   -0.6200
     13 C13       -10.3047    0.6517   54.9021 C.2     1  ZINC001011267435    0.5300
     14 O14       -11.4879    0.9159   54.8651 O.2     1  ZINC001011267435   -0.5300
     15 C15        -9.8458   -0.6756   55.4484 C.3     1  ZINC001011267435   -0.1100
     16 H16        -8.9198   -0.5382   56.0067 H       1  ZINC001011267435    0.0900
     17 C17        -9.6043   -1.6474   54.2915 C.3     1  ZINC001011267435   -0.1500
     18 C18       -10.9211   -1.2446   56.3763 C.3     1  ZINC001011267435   -0.0800
     19 C19       -10.4860   -2.6236   56.8760 C.3     1  ZINC001011267435   -0.1500
     20 C20       -11.1128   -0.3068   57.5700 C.3     1  ZINC001011267435   -0.1500
     21 C21        -9.8338    2.8437   53.9194 C.3     1  ZINC001011267435    0.0900
     22 C22        -9.2593    3.0102   52.5119 C.3     1  ZINC001011267435    0.1000
     23 C23        -4.9075    2.3985   51.2033 C.ar    1  ZINC001011267435   -0.1600
     24 C24        -3.5555    2.1237   51.2768 C.ar    1  ZINC001011267435    0.1100
     25 N25        -2.8025    2.6750   52.2074 N.ar    1  ZINC001011267435   -0.4600
     26 H26        -0.3819    5.7740   54.9189 H       1  ZINC001011267435    0.0600
     27 H27        -0.0446    4.1440   55.5494 H       1  ZINC001011267435    0.0500
     28 H28         0.9788    4.8308   54.2653 H       1  ZINC001011267435    0.0600
     29 H29        -0.9525    4.8015   52.7104 H       1  ZINC001011267435    0.0700
     30 H30        -0.6152    3.1715   53.3410 H       1  ZINC001011267435    0.0600
     31 H31        -2.3942    3.4629   55.0441 H       1  ZINC001011267435    0.0800
     32 H32        -2.7320    5.0922   54.4120 H       1  ZINC001011267435    0.0900
     33 H33        -5.0358    4.5060   53.8516 H       1  ZINC001011267435    0.1400
     34 H34        -7.7589    0.6019   52.4398 H       1  ZINC001011267435    0.0800
     35 H35        -6.3010    1.3693   53.1214 H       1  ZINC001011267435    0.1100
     36 H36        -7.8174    0.2127   54.8302 H       1  ZINC001011267435    0.1100
     37 H37        -7.4613    1.9256   55.1740 H       1  ZINC001011267435    0.0700
     38 H38        -9.3529   -2.6305   54.6893 H       1  ZINC001011267435    0.0800
     39 H39       -10.5067   -1.7210   53.6845 H       1  ZINC001011267435    0.0600
     40 H40        -8.7816   -1.2829   53.6765 H       1  ZINC001011267435    0.0600
     41 H41       -11.8605   -1.3354   55.8310 H       1  ZINC001011267435    0.0800
     42 H42       -11.2520   -3.0289   57.5371 H       1  ZINC001011267435    0.0600
     43 H43       -10.3493   -3.2917   56.0256 H       1  ZINC001011267435    0.0600
     44 H44        -9.5465   -2.5327   57.4212 H       1  ZINC001011267435    0.0600
     45 H45       -11.4228    0.6757   57.2140 H       1  ZINC001011267435    0.0600
     46 H46       -11.8788   -0.7121   58.2310 H       1  ZINC001011267435    0.0600
     47 H47       -10.1733   -0.2159   58.1152 H       1  ZINC001011267435    0.0500
     48 H48       -10.9224    2.8775   53.8781 H       1  ZINC001011267435    0.1000
     49 H49        -9.4645    3.6448   54.5598 H       1  ZINC001011267435    0.0800
     50 H50        -9.4064    4.0366   52.1758 H       1  ZINC001011267435    0.1100
     51 H51        -9.7599    2.3238   51.8290 H       1  ZINC001011267435    0.0800
     52 H52        -5.5180    1.9462   50.4356 H       1  ZINC001011267435    0.1500
     53 H53        -3.1089    1.4510   50.5595 H       1  ZINC001011267435    0.1700
@<TRIPOS>BOND
     1     1     2    1
     2     1    26    1
     3     1    27    1
     4     1    28    1
     5     2     3    1
     6     2    29    1
     7     2    30    1
     8     3     4    1
     9     3    31    1
    10     3    32    1
    11     4    25   ar
    12     4     5   ar
    13     5     6   ar
    14     5    33    1
    15     6     7    1
    16     6    23   ar
    17     7     8    2
    18     7     9   am
    19     9    22    1
    20     9    10    1
    21    10    11    1
    22    10    34    1
    23    10    35    1
    24    11    12    1
    25    11    36    1
    26    11    37    1
    27    12    13   am
    28    12    21    1
    29    13    14    2
    30    13    15    1
    31    15    16    1
    32    15    17    1
    33    15    18    1
    34    17    38    1
    35    17    39    1
    36    17    40    1
    37    18    19    1
    38    18    20    1
    39    18    41    1
    40    19    42    1
    41    19    43    1
    42    19    44    1
    43    20    45    1
    44    20    46    1
    45    20    47    1
    46    21    22    1
    47    21    48    1
    48    21    49    1
    49    22    50    1
    50    22    51    1
    51    23    24   ar
    52    23    52    1
    53    24    25   ar
    54    24    53    1
@<TRIPOS>SUBSTRUCTURE
     1 ZINC001011267435        1 TEMP              0 ****  ****    0 ROOT


##########                                Name:    ZINC000493443319
##########                DOCK_Rotatable_Bonds:                   6
##########                         Heavy_Atoms:                  25
##########                    Molecular_Weight:             348.399
##########                DOCK_Rotatable_Bonds:                   6
##########                       Formal_Charge:        -3.27826e-07
##########                     HBond_Acceptors:                   7
##########                        HBond_Donors:                   0
##########                         Heavy_Atoms:                  25
##########                          Grid_Score:          -25.466253
##########                     Grid_vdw_energy:          -22.597044
##########                      Grid_es_energy:           -2.869210
##########           Internal_energy_repulsive:           51.198910

@<TRIPOS>MOLECULE
ZINC000493443319
 49 51 1 0 0
SMALL
USER_CHARGES


@<TRIPOS>ATOM
      1 C1         -5.3712    4.7265   57.8283 C.3     1  <0>        -0.1500
      2 C2         -6.6334    3.8642   57.7648 C.3     1  <0>         0.0500
      3 O3         -6.3512    2.5671   58.2936 O.3     1  <0>        -0.3200
      4 C4         -7.3739    1.6708   58.3091 C.ar    1  <0>         0.1000
      5 C5         -8.6229    2.0355   57.8288 C.ar    1  <0>        -0.1700
      6 C6         -9.6617    1.1253   57.8446 C.ar    1  <0>        -0.1100
      7 C7         -9.4556   -0.1536   58.3404 C.ar    1  <0>         0.0800
      8 O8        -10.4784   -1.0497   58.3562 O.3     1  <0>        -0.3000
      9 C9        -10.6475   -1.8617   57.1926 C.3     1  <0>         0.1000
     10 C10       -10.7589   -0.9659   55.9572 C.3     1  <0>        -0.1800
     11 C11        -9.4427   -2.7925   57.0407 C.3     1  <0>        -0.1500
     12 C12       -11.9030   -2.6838   57.3318 C.2     1  <0>         0.5100
     13 O13       -11.8714   -3.8785   57.1259 O.2     1  <0>        -0.5200
     14 N14       -13.0607   -2.0911   57.6851 N.am    1  <0>        -0.6000
     15 C15       -13.1020   -0.6449   57.9349 C.3     1  <0>         0.0700
     16 C16       -14.1595   -0.0074   57.0195 C.3     1  <0>         0.1300
     17 N17       -15.3665   -0.8424   57.0951 N.am    1  <0>        -0.6300
     18 C18       -16.6148   -0.4693   57.3819 C.2     1  <0>         0.6500
     19 O19       -16.9590    0.6929   57.4661 O.2     1  <0>        -0.5200
     20 O20       -17.4527   -1.4980   57.5684 O.3     1  <0>        -0.3200
     21 C21       -16.7514   -2.7499   57.3074 C.3     1  <0>         0.0500
     22 C22       -15.3445   -2.3048   56.8764 C.3     1  <0>         0.0800
     23 H23       -15.1480   -2.5524   55.8332 H       1  <0>         0.1100
     24 C24       -14.2891   -2.8897   57.8157 C.3     1  <0>         0.1000
     25 C25        -8.2063   -0.5187   58.8193 C.ar    1  <0>        -0.1800
     26 C26        -7.1664    0.3904   58.8000 C.ar    1  <0>        -0.1100
     27 H27        -5.5863    5.7160   57.4250 H       1  <0>         0.0800
     28 H28        -5.0463    4.8194   58.8646 H       1  <0>         0.0700
     29 H29        -4.5815    4.2585   57.2405 H       1  <0>         0.0700
     30 H30        -7.4231    4.3323   58.3526 H       1  <0>         0.0600
     31 H31        -6.9582    3.7715   56.7285 H       1  <0>         0.0600
     32 H32        -8.7833    3.0314   57.4428 H       1  <0>         0.1400
     33 H33       -10.6345    1.4094   57.4713 H       1  <0>         0.1400
     34 H34        -9.8044   -0.4700   55.7809 H       1  <0>         0.0800
     35 H35       -11.0184   -1.5733   55.0901 H       1  <0>         0.0900
     36 H36       -11.5331   -0.2162   56.1206 H       1  <0>         0.0800
     37 H37        -9.3103   -3.3678   57.9570 H       1  <0>         0.0800
     38 H38        -9.6120   -3.4726   56.2059 H       1  <0>         0.0900
     39 H39        -8.5476   -2.2002   56.8510 H       1  <0>         0.0900
     40 H40       -13.3642   -0.4624   58.9770 H       1  <0>         0.0800
     41 H41       -12.1255   -0.2100   57.7218 H       1  <0>         0.1300
     42 H42       -14.3856    1.0026   57.3617 H       1  <0>         0.1100
     43 H43       -13.7927    0.0215   55.9935 H       1  <0>         0.0800
     44 H44       -16.7002   -3.3551   58.2124 H       1  <0>         0.1100
     45 H45       -17.2404   -3.3017   56.5046 H       1  <0>         0.1100
     46 H46       -14.0858   -3.9250   57.5419 H       1  <0>         0.1100
     47 H47       -14.6458   -2.8436   58.8446 H       1  <0>         0.0800
     48 H48        -8.0456   -1.5147   59.2050 H       1  <0>         0.1600
     49 H49        -6.1936    0.1060   59.1730 H       1  <0>         0.1300
@<TRIPOS>BOND
     1     1     2    1
     2     1    27    1
     3     1    28    1
     4     1    29    1
     5     2     3    1
     6     2    30    1
     7     2    31    1
     8     3     4    1
     9     4    26   ar
    10     4     5   ar
    11     5     6   ar
    12     5    32    1
    13     6     7   ar
    14     6    33    1
    15     7     8    1
    16     7    25   ar
    17     8     9    1
    18     9    10    1
    19     9    11    1
    20     9    12    1
    21    10    34    1
    22    10    35    1
    23    10    36    1
    24    11    37    1
    25    11    38    1
    26    11    39    1
    27    12    13    2
    28    12    14   am
    29    14    24    1
    30    14    15    1
    31    15    16    1
    32    15    40    1
    33    15    41    1
    34    16    17    1
    35    16    42    1
    36    16    43    1
    37    17    22    1
    38    17    18   am
    39    18    19    2
    40    18    20    1
    41    20    21    1
    42    21    22    1
    43    21    44    1
    44    21    45    1
    45    22    23    1
    46    22    24    1
    47    24    46    1
    48    24    47    1
    49    25    26   ar
    50    25    48    1
    51    26    49    1
@<TRIPOS>SUBSTRUCTURE
     1 <0>         1 TEMP              0 ****  ****    0 ROOT


##########                                Name:    ZINC000626935317
##########                DOCK_Rotatable_Bonds:                   6
##########                         Heavy_Atoms:                  25
##########                    Molecular_Weight:             366.441
##########                DOCK_Rotatable_Bonds:                   6
##########                       Formal_Charge:          -0.0200006
##########                     HBond_Acceptors:                   9
##########                        HBond_Donors:                   2
##########                         Heavy_Atoms:                  25
##########                          Grid_Score:          -25.454746
##########                     Grid_vdw_energy:          -21.701466
##########                      Grid_es_energy:           -3.753281
##########           Internal_energy_repulsive:           15.937537

@<TRIPOS>MOLECULE
ZINC000626935317
 47 49 1 0 0
SMALL
USER_CHARGES


@<TRIPOS>ATOM
      1 C1        -10.1001    1.5381   55.3605 C.3     1  ZINC000626935317    0.0900
      2 N2        -10.2115    0.1092   55.6646 N.am    1  ZINC000626935317   -0.6200
      3 C3         -9.6180   -0.8658   54.9548 C.2     1  ZINC000626935317    0.5200
      4 O4         -8.9252   -0.6885   53.9752 O.2     1  ZINC000626935317   -0.5200
      5 C5         -9.9396   -2.2164   55.5557 C.3     1  ZINC000626935317   -0.1500
      6 C6        -10.4694   -1.8855   56.9702 C.3     1  ZINC000626935317   -0.1200
      7 H7         -9.6660   -1.9205   57.7059 H       1  ZINC000626935317    0.1200
      8 C8        -11.5917   -2.8141   57.3566 C.2     1  ZINC000626935317    0.5300
      9 O9        -11.3429   -3.8936   57.8501 O.2     1  ZINC000626935317   -0.5200
     10 N10       -12.8720   -2.4449   57.1535 N.am    1  ZINC000626935317   -0.7100
     11 C11       -13.9629   -3.3483   57.5274 C.3     1  ZINC000626935317    0.1200
     12 C12       -14.6840   -2.9403   58.8230 C.3     1  ZINC000626935317   -0.1600
     13 C13       -15.6171   -2.0914   57.9435 C.3     1  ZINC000626935317    0.1200
     14 N14       -15.1339   -0.7262   57.7225 N.am    1  ZINC000626935317   -1.1100
     15 S15       -16.1043    0.3837   56.9682 S.o2    1  ZINC000626935317    2.6100
     16 C16       -16.4331   -0.3376   55.3365 C.3     1  ZINC000626935317   -0.6700
     17 O17       -17.2891    0.4036   57.7524 O.2     1  ZINC000626935317   -0.9500
     18 O18       -15.2864    1.5393   56.8470 O.2     1  ZINC000626935317   -0.9500
     19 C19       -15.2828   -3.0568   56.7940 C.3     1  ZINC000626935317   -0.1600
     20 C20       -10.9803   -0.4410   56.7872 C.3     1  ZINC000626935317    0.2000
     21 H21       -12.0426   -0.4446   56.5431 H       1  ZINC000626935317    0.1100
     22 C22       -10.7364    0.3610   58.0395 C.ar    1  ZINC000626935317   -0.1600
     23 C23        -9.4624    0.8134   58.3464 C.ar    1  ZINC000626935317   -0.0500
     24 C24        -9.2853    1.5481   59.5091 C.ar    1  ZINC000626935317   -0.1700
     25 C25       -10.3765    1.8031   60.3174 C.ar    1  ZINC000626935317    0.1000
     26 N26       -11.5747    1.3567   59.9939 N.ar    1  ZINC000626935317   -0.4800
     27 C27       -11.7812    0.6597   58.8939 C.ar    1  ZINC000626935317    0.1200
     28 H28        -9.2408    1.9554   55.8855 H       1  ZINC000626935317    0.0600
     29 H29        -9.9699    1.6719   54.2866 H       1  ZINC000626935317    0.0800
     30 H30       -11.0068    2.0499   55.6832 H       1  ZINC000626935317    0.0700
     31 H31       -10.7069   -2.7218   54.9695 H       1  ZINC000626935317    0.1100
     32 H32        -9.0407   -2.8295   55.6189 H       1  ZINC000626935317    0.1200
     33 H33       -13.0710   -1.5809   56.7598 H       1  ZINC000626935317    0.4000
     34 H34       -13.6712   -4.3982   57.5006 H       1  ZINC000626935317    0.1100
     35 H35       -15.1878   -3.7683   59.3216 H       1  ZINC000626935317    0.1100
     36 H36       -14.0656   -2.3505   59.4997 H       1  ZINC000626935317    0.0800
     37 H37       -16.6612   -2.1257   58.2546 H       1  ZINC000626935317    0.1100
     38 H38       -14.2455   -0.4723   58.0179 H       1  ZINC000626935317    0.4100
     39 H39       -16.9324   -1.2987   55.4579 H       1  ZINC000626935317    0.1300
     40 H40       -17.0728    0.3345   54.7644 H       1  ZINC000626935317    0.1300
     41 H41       -15.4915   -0.4816   54.8065 H       1  ZINC000626935317    0.1300
     42 H42       -15.1479   -2.5611   55.8327 H       1  ZINC000626935317    0.0900
     43 H43       -15.9503   -3.9167   56.7380 H       1  ZINC000626935317    0.1100
     44 H44        -8.6278    0.5984   57.6957 H       1  ZINC000626935317    0.1400
     45 H45        -8.3065    1.9161   59.7796 H       1  ZINC000626935317    0.1400
     46 H46       -10.2469    2.3743   61.2248 H       1  ZINC000626935317    0.1600
     47 H47       -12.7766    0.3107   58.6621 H       1  ZINC000626935317    0.1500
@<TRIPOS>BOND
     1     1     2    1
     2     1    28    1
     3     1    29    1
     4     1    30    1
     5     2    20    1
     6     2     3   am
     7     3     4    2
     8     3     5    1
     9     5     6    1
    10     5    31    1
    11     5    32    1
    12     6     7    1
    13     6     8    1
    14     6    20    1
    15     8     9    2
    16     8    10   am
    17    10    11    1
    18    10    33    1
    19    11    19    1
    20    11    12    1
    21    11    34    1
    22    12    13    1
    23    12    35    1
    24    12    36    1
    25    13    14    1
    26    13    19    1
    27    13    37    1
    28    14    15   am
    29    14    38    1
    30    15    16    1
    31    15    17    2
    32    15    18    2
    33    16    39    1
    34    16    40    1
    35    16    41    1
    36    19    42    1
    37    19    43    1
    38    20    21    1
    39    20    22    1
    40    22    27   ar
    41    22    23   ar
    42    23    24   ar
    43    23    44    1
    44    24    25   ar
    45    24    45    1
    46    25    26   ar
    47    25    46    1
    48    26    27   ar
    49    27    47    1
@<TRIPOS>SUBSTRUCTURE
     1 ZINC000626935317        1 TEMP              0 ****  ****    0 ROOT


##########                                Name:    ZINC000098105561
##########                DOCK_Rotatable_Bonds:                   5
##########                         Heavy_Atoms:                  25
##########                    Molecular_Weight:             368.336
##########                DOCK_Rotatable_Bonds:                   5
##########                       Formal_Charge:         2.98023e-08
##########                     HBond_Acceptors:                   9
##########                        HBond_Donors:                   0
##########                         Heavy_Atoms:                  25
##########                          Grid_Score:          -25.440187
##########                     Grid_vdw_energy:          -23.428816
##########                      Grid_es_energy:           -2.011372
##########           Internal_energy_repulsive:           15.593019

@<TRIPOS>MOLECULE
ZINC000098105561
 36 38 1 0 0
SMALL
USER_CHARGES


@<TRIPOS>ATOM
      1 C1         -9.5637    4.5555   49.5521 C.3     1  ZINC000098105561   -0.0800
      2 C2         -9.0999    4.1179   50.9175 C.2     1  ZINC000098105561    0.0900
      3 C3         -9.9466    3.8084   51.9022 C.2     1  ZINC000098105561   -0.2700
      4 S4         -8.9980    3.3527   53.3151 S.3     1  ZINC000098105561    0.1600
      5 C5         -7.5519    3.6229   52.4440 C.2     1  ZINC000098105561    0.2500
      6 N6         -6.2726    3.4528   52.9547 N.am    1  ZINC000098105561   -0.5200
      7 C7         -5.8212    2.1229   53.3715 C.3     1  ZINC000098105561    0.0500
      8 C8         -6.3506    1.0742   52.3913 C.3     1  ZINC000098105561    0.4400
      9 F9         -6.2973    1.5837   51.0894 F       1  ZINC000098105561   -0.1700
     10 F10        -5.5638   -0.0797   52.4730 F       1  ZINC000098105561   -0.1700
     11 F11        -7.6747    0.7596   52.7150 F       1  ZINC000098105561   -0.1700
     12 C12        -5.4456    4.5111   53.0672 C.2     1  ZINC000098105561    0.5800
     13 O13        -5.8201    5.6142   52.7215 O.2     1  ZINC000098105561   -0.4100
     14 C14        -4.0805    4.3296   53.6121 C.2     1  ZINC000098105561    0.0800
     15 C15        -3.1537    3.7026   52.8464 C.2     1  ZINC000098105561   -0.2000
     16 C16        -1.8036    3.5119   53.4031 C.2     1  ZINC000098105561    0.4200
     17 O17        -0.8624    3.1669   52.7105 O.2     1  ZINC000098105561   -0.4300
     18 C18        -1.6586    3.7641   54.8511 C.ar    1  ZINC000098105561   -0.2200
     19 C19        -0.5140    3.3799   55.5461 C.ar    1  ZINC000098105561   -0.0300
     20 C20        -0.4251    3.6304   56.8982 C.ar    1  ZINC000098105561   -0.1400
     21 C21        -1.4685    4.2599   57.5621 C.ar    1  ZINC000098105561   -0.0500
     22 C22        -2.6048    4.6466   56.8848 C.ar    1  ZINC000098105561   -0.1400
     23 C23        -2.7154    4.4077   55.5190 C.ar    1  ZINC000098105561    0.1400
     24 O24        -3.8120    4.7969   54.8390 O.3     1  ZINC000098105561   -0.2300
     25 N25        -7.8243    4.0045   51.2349 N.2     1  ZINC000098105561   -0.4600
     26 H26        -9.6849    3.6814   48.9122 H       1  ZINC000098105561    0.0800
     27 H27       -10.5175    5.0753   49.6416 H       1  ZINC000098105561    0.0800
     28 H28        -8.8240    5.2260   49.1147 H       1  ZINC000098105561    0.0800
     29 H29       -11.0247    3.8335   51.8431 H       1  ZINC000098105561    0.1900
     30 H30        -4.7316    2.0951   53.3799 H       1  ZINC000098105561    0.1700
     31 H31        -6.1978    1.9082   54.3716 H       1  ZINC000098105561    0.1400
     32 H32        -3.3989    3.3520   51.8548 H       1  ZINC000098105561    0.1800
     33 H33         0.2973    2.8890   55.0293 H       1  ZINC000098105561    0.1400
     34 H34         0.4595    3.3355   57.4432 H       1  ZINC000098105561    0.1400
     35 H35        -1.3894    4.4486   58.6225 H       1  ZINC000098105561    0.1400
     36 H36        -3.4091    5.1356   57.4144 H       1  ZINC000098105561    0.1400
@<TRIPOS>BOND
     1     1     2    1
     2     1    26    1
     3     1    27    1
     4     1    28    1
     5     2    25    1
     6     2     3    2
     7     3     4    1
     8     3    29    1
     9     4     5    1
    10     5     6    1
    11     5    25    2
    12     6     7    1
    13     6    12   am
    14     7     8    1
    15     7    30    1
    16     7    31    1
    17     8     9    1
    18     8    10    1
    19     8    11    1
    20    12    13    2
    21    12    14    1
    22    14    24    1
    23    14    15    2
    24    15    16    1
    25    15    32    1
    26    16    17    2
    27    16    18    1
    28    18    23   ar
    29    18    19   ar
    30    19    20   ar
    31    19    33    1
    32    20    21   ar
    33    20    34    1
    34    21    22   ar
    35    21    35    1
    36    22    23   ar
    37    22    36    1
    38    23    24    1
@<TRIPOS>SUBSTRUCTURE
     1 ZINC000098105561        1 TEMP              0 ****  ****    0 ROOT


##########                                Name:    ZINC000530457945
##########                DOCK_Rotatable_Bonds:                   4
##########                         Heavy_Atoms:                  25
##########                    Molecular_Weight:             355.827
##########                DOCK_Rotatable_Bonds:                   4
##########                       Formal_Charge:           0.0199997
##########                     HBond_Acceptors:                   7
##########                        HBond_Donors:                   1
##########                         Heavy_Atoms:                  25
##########                          Grid_Score:          -25.425690
##########                     Grid_vdw_energy:          -24.411469
##########                      Grid_es_energy:           -1.014220
##########           Internal_energy_repulsive:           29.041142

@<TRIPOS>MOLECULE
ZINC000530457945
 43 46 1 0 0
SMALL
USER_CHARGES


@<TRIPOS>ATOM
      1 C1        -14.1461   -0.6328   58.7424 C.3     1  ZINC000530457945   -0.1700
      2 C2        -13.2005   -1.8255   58.8979 C.3     1  ZINC000530457945    0.0900
      3 H3        -13.2592   -2.2150   59.9142 H       1  ZINC000530457945    0.1100
      4 C4        -11.7529   -1.3921   58.5845 C.3     1  ZINC000530457945   -0.1200
      5 H5        -11.7448   -0.5072   57.9482 H       1  ZINC000530457945    0.1100
      6 C6        -10.9856   -1.1384   59.8565 C.2     1  ZINC000530457945    0.5300
      7 O7        -10.7974   -2.0432   60.6418 O.2     1  ZINC000530457945   -0.4700
      8 N8        -10.5085    0.0941   60.1212 N.am    1  ZINC000530457945   -0.6200
      9 C9         -9.7988    0.3296   61.3007 C.2     1  ZINC000530457945    0.4800
     10 N10       -10.3229    0.3691   62.5089 N.2     1  ZINC000530457945   -0.3000
     11 N11        -9.2754    0.6301   63.4037 N.pl3   1  ZINC000530457945   -0.2800
     12 C12        -9.2230    0.7767   64.7539 C.2     1  ZINC000530457945    0.1400
     13 C13        -8.0469    1.0302   65.3735 C.2     1  ZINC000530457945   -0.0800
     14 Cl14       -7.9996    1.2145   67.0990 Cl      1  ZINC000530457945   -0.0200
     15 C15        -6.8656    1.1440   64.6250 C.2     1  ZINC000530457945   -0.0500
     16 C16        -6.9100    0.9977   63.2714 C.2     1  ZINC000530457945   -0.0900
     17 C17        -8.1427    0.7352   62.6478 C.2     1  ZINC000530457945    0.3000
     18 N18        -8.4891    0.5431   61.3787 N.2     1  ZINC000530457945   -0.5500
     19 C19       -11.1773   -2.6176   57.8273 C.3     1  ZINC000530457945   -0.1200
     20 C20       -12.4124   -3.0982   57.0251 C.3     1  ZINC000530457945    0.0400
     21 N21       -13.5622   -2.8814   57.9344 N.3     1  ZINC000530457945   -0.4900
     22 C22       -14.7088   -2.5327   57.2170 C.ar    1  ZINC000530457945    0.1000
     23 C23       -14.6255   -1.6230   56.1706 C.ar    1  ZINC000530457945   -0.1600
     24 C24       -15.7611   -1.2810   55.4629 C.ar    1  ZINC000530457945   -0.1100
     25 C25       -16.9802   -1.8426   55.7955 C.ar    1  ZINC000530457945   -0.1300
     26 C26       -17.0667   -2.7485   56.8366 C.ar    1  ZINC000530457945   -0.1100
     27 C27       -15.9341   -3.0994   57.5446 C.ar    1  ZINC000530457945   -0.1000
     28 H28       -15.1774   -0.9713   58.8426 H       1  ZINC000530457945    0.0700
     29 H29       -13.9296    0.1057   59.5143 H       1  ZINC000530457945    0.0600
     30 H30       -14.0052   -0.1832   57.7595 H       1  ZINC000530457945    0.0600
     31 H31       -10.6581    0.8174   59.4924 H       1  ZINC000530457945    0.4300
     32 H32       -10.1278    0.6906   65.3372 H       1  ZINC000530457945    0.1800
     33 H33        -5.9268    1.3466   65.1190 H       1  ZINC000530457945    0.1600
     34 H34        -6.0082    1.0833   62.6833 H       1  ZINC000530457945    0.1700
     35 H35       -10.3696   -2.3196   57.1589 H       1  ZINC000530457945    0.0900
     36 H36       -10.8419   -3.3853   58.5247 H       1  ZINC000530457945    0.0900
     37 H37       -12.5285   -2.5070   56.1168 H       1  ZINC000530457945    0.0700
     38 H38       -12.3180   -4.1562   56.7808 H       1  ZINC000530457945    0.0900
     39 H39       -13.6738   -1.1835   55.9108 H       1  ZINC000530457945    0.1200
     40 H40       -15.6970   -0.5738   54.6492 H       1  ZINC000530457945    0.1200
     41 H41       -17.8669   -1.5728   55.2410 H       1  ZINC000530457945    0.1200
     42 H42       -18.0204   -3.1854   57.0938 H       1  ZINC000530457945    0.1300
     43 H43       -16.0022   -3.8072   58.3575 H       1  ZINC000530457945    0.1300
@<TRIPOS>BOND
     1     1     2    1
     2     1    28    1
     3     1    29    1
     4     1    30    1
     5     2     3    1
     6     2    21    1
     7     2     4    1
     8     4     5    1
     9     4     6    1
    10     4    19    1
    11     6     7    2
    12     6     8   am
    13     8     9    1
    14     8    31    1
    15     9    18    1
    16     9    10    2
    17    10    11    1
    18    11    17    1
    19    11    12    1
    20    12    13    2
    21    12    32    1
    22    13    14    1
    23    13    15    1
    24    15    16    2
    25    15    33    1
    26    16    17    1
    27    16    34    1
    28    17    18    2
    29    19    20    1
    30    19    35    1
    31    19    36    1
    32    20    21    1
    33    20    37    1
    34    20    38    1
    35    21    22    1
    36    22    27   ar
    37    22    23   ar
    38    23    24   ar
    39    23    39    1
    40    24    25   ar
    41    24    40    1
    42    25    26   ar
    43    25    41    1
    44    26    27   ar
    45    26    42    1
    46    27    43    1
@<TRIPOS>SUBSTRUCTURE
     1 ZINC000530457945        1 TEMP              0 ****  ****    0 ROOT


##########                                Name:    ZINC001199210165
##########                DOCK_Rotatable_Bonds:                   5
##########                         Heavy_Atoms:                  23
##########                    Molecular_Weight:             375.225
##########                DOCK_Rotatable_Bonds:                   5
##########                       Formal_Charge:         -0.00999999
##########                     HBond_Acceptors:                   6
##########                        HBond_Donors:                   2
##########                         Heavy_Atoms:                  23
##########                          Grid_Score:          -25.420818
##########                     Grid_vdw_energy:          -25.707920
##########                      Grid_es_energy:            0.287102
##########           Internal_energy_repulsive:            8.755029

@<TRIPOS>MOLECULE
ZINC001199210165
 38 40 1 0 0
SMALL
USER_CHARGES


@<TRIPOS>ATOM
      1 C1          2.9097    0.6982   50.6477 C.3     1  ZINC001199210165   -0.1700
      2 C2          2.3613    1.6255   49.5614 C.3     1  ZINC001199210165    0.0800
      3 C3          2.9783    1.2514   48.2123 C.3     1  ZINC001199210165   -0.1500
      4 O4          0.9407    1.4878   49.4900 O.3     1  ZINC001199210165   -0.3000
      5 C5          0.2140    2.0848   50.4680 C.ar    1  ZINC001199210165    0.3300
      6 C6         -1.1619    1.9038   50.5082 C.ar    1  ZINC001199210165   -0.1300
      7 C7         -1.8960    2.5247   51.5208 C.ar    1  ZINC001199210165   -0.0600
      8 C8         -3.3657    2.3604   51.6049 C.2     1  ZINC001199210165    0.5700
      9 O9         -3.9331    1.5798   50.8662 O.2     1  ZINC001199210165   -0.4900
     10 N10        -4.0737    3.0767   52.5004 N.am    1  ZINC001199210165   -0.6600
     11 C11        -5.4609    2.9216   52.5798 C.ar    1  ZINC001199210165    0.2000
     12 C12        -6.2972    3.9876   52.2446 C.ar    1  ZINC001199210165   -0.1500
     13 C13        -7.6521    3.8546   52.3156 C.ar    1  ZINC001199210165   -0.0200
     14 C14        -8.2128    2.6404   52.7277 C.ar    1  ZINC001199210165   -0.1700
     15 C15        -9.5826    2.1692   52.9112 C.2     1  ZINC001199210165    0.0900
     16 Br16      -11.1563    3.1738   52.6105 Br      1  ZINC001199210165    0.0600
     17 N17        -9.5271    0.9329   53.3185 N.2     1  ZINC001199210165   -0.2100
     18 N18        -8.1946    0.5221   53.4272 N.pl3   1  ZINC001199210165   -0.4900
     19 C19        -7.3747    1.5603   53.0676 C.ar    1  ZINC001199210165    0.1500
     20 C20        -5.9940    1.7115   52.9844 C.ar    1  ZINC001199210165   -0.1700
     21 C21        -1.2058    3.3061   52.4543 C.ar    1  ZINC001199210165   -0.1900
     22 C22         0.1638    3.4339   52.3419 C.ar    1  ZINC001199210165    0.1400
     23 N23         0.8250    2.8280   51.3748 N.ar    1  ZINC001199210165   -0.5200
     24 H24         2.6563   -0.3341   50.4061 H       1  ZINC001199210165    0.0600
     25 H25         3.9932    0.8033   50.7022 H       1  ZINC001199210165    0.0700
     26 H26         2.4700    0.9647   51.6088 H       1  ZINC001199210165    0.0600
     27 H27         2.6145    2.6578   49.8030 H       1  ZINC001199210165    0.0900
     28 H28         2.7251    0.2191   47.9706 H       1  ZINC001199210165    0.0700
     29 H29         2.5877    1.9121   47.4383 H       1  ZINC001199210165    0.0600
     30 H30         4.0619    1.3564   48.2667 H       1  ZINC001199210165    0.0800
     31 H31        -1.6567    1.2926   49.7679 H       1  ZINC001199210165    0.1600
     32 H32        -3.6208    3.6998   53.0901 H       1  ZINC001199210165    0.4100
     33 H33        -5.8673    4.9260   51.9265 H       1  ZINC001199210165    0.1500
     34 H34        -8.2917    4.6849   52.0546 H       1  ZINC001199210165    0.1400
     35 H35        -7.8981   -0.3566   53.7113 H       1  ZINC001199210165    0.4500
     36 H36        -5.3419    0.8888   53.2377 H       1  ZINC001199210165    0.1400
     37 H37        -1.7379    3.8028   53.2521 H       1  ZINC001199210165    0.1400
     38 H38         0.7026    4.0357   53.0587 H       1  ZINC001199210165    0.1700
@<TRIPOS>BOND
     1     1     2    1
     2     1    24    1
     3     1    25    1
     4     1    26    1
     5     2     3    1
     6     2     4    1
     7     2    27    1
     8     3    28    1
     9     3    29    1
    10     3    30    1
    11     4     5    1
    12     5    23   ar
    13     5     6   ar
    14     6     7   ar
    15     6    31    1
    16     7     8    1
    17     7    21   ar
    18     8     9    2
    19     8    10   am
    20    10    11    1
    21    10    32    1
    22    11    20   ar
    23    11    12   ar
    24    12    13   ar
    25    12    33    1
    26    13    14   ar
    27    13    34    1
    28    14    19   ar
    29    14    15    1
    30    15    16    1
    31    15    17    2
    32    17    18    1
    33    18    19    1
    34    18    35    1
    35    19    20   ar
    36    20    36    1
    37    21    22   ar
    38    21    37    1
    39    22    23   ar
    40    22    38    1
@<TRIPOS>SUBSTRUCTURE
     1 ZINC001199210165        1 TEMP              0 ****  ****    0 ROOT


##########                                Name:    ZINC001179023006
##########                DOCK_Rotatable_Bonds:                   3
##########                         Heavy_Atoms:                  25
##########                    Molecular_Weight:             340.465
##########                DOCK_Rotatable_Bonds:                   3
##########                       Formal_Charge:          -0.0100005
##########                     HBond_Acceptors:                   4
##########                        HBond_Donors:                   1
##########                         Heavy_Atoms:                  25
##########                          Grid_Score:          -25.339691
##########                     Grid_vdw_energy:          -24.110813
##########                      Grid_es_energy:           -1.228877
##########           Internal_energy_repulsive:           43.324886

@<TRIPOS>MOLECULE
ZINC001179023006
 53 56 1 0 0
SMALL
USER_CHARGES


@<TRIPOS>ATOM
      1 C1        -13.7736   -1.3567   59.7556 C.3     1  ZINC001179023006   -0.1500
      2 C2        -12.9156   -0.4953   58.8268 C.3     1  ZINC001179023006   -0.1100
      3 C3        -11.9156   -1.3848   58.0856 C.3     1  ZINC001179023006   -0.1100
      4 C4        -10.6276   -0.6729   57.7611 C.2     1  ZINC001179023006    0.5400
      5 O5        -10.3521   -0.4128   56.6090 O.2     1  ZINC001179023006   -0.5400
      6 N6         -9.7818   -0.3251   58.7512 N.am    1  ZINC001179023006   -0.5900
      7 C7        -10.1036   -0.6275   60.1523 C.3     1  ZINC001179023006    0.1000
      8 C8        -10.0056    0.6553   60.9746 C.3     1  ZINC001179023006   -0.1200
      9 C9         -8.6159    1.2786   60.7785 C.3     1  ZINC001179023006   -0.0500
     10 C10        -8.4482    1.6441   59.2963 C.3     1  ZINC001179023006   -0.1100
     11 C11        -8.5223    0.3693   58.4515 C.3     1  ZINC001179023006    0.0900
     12 C12        -8.5168    2.5446   61.6148 C.3     1  ZINC001179023006   -0.0800
     13 C13        -8.7865    2.2735   63.0632 C.ar    1  ZINC001179023006   -0.0700
     14 C14        -9.9904    2.7083   63.6081 C.ar    1  ZINC001179023006   -0.1100
     15 C15       -10.2959    2.4192   64.9235 C.ar    1  ZINC001179023006   -0.1100
     16 C16        -9.4090    1.7001   65.7026 C.ar    1  ZINC001179023006   -0.1200
     17 C17        -8.2062    1.2813   65.1621 C.ar    1  ZINC001179023006   -0.1000
     18 C18        -7.9076    1.5850   63.8457 C.ar    1  ZINC001179023006   -0.1100
     19 C19        -6.5865    1.1559   63.2601 C.3     1  ZINC001179023006    0.1400
     20 N20        -6.7640    0.2067   62.1837 N.am    1  ZINC001179023006   -0.7000
     21 C21        -7.5713    0.2764   61.1567 C.2     1  ZINC001179023006    0.5200
     22 O22        -7.4516   -0.6373   60.3683 O.2     1  ZINC001179023006   -0.5500
     23 C23       -12.5253   -2.1318   56.8877 C.3     1  ZINC001179023006   -0.1200
     24 C24       -11.6849   -3.3469   57.3203 C.3     1  ZINC001179023006   -0.1400
     25 C25       -11.7106   -2.7605   58.7417 C.3     1  ZINC001179023006   -0.1300
     26 H26       -14.5115   -0.7287   60.2549 H       1  ZINC001179023006    0.0600
     27 H27       -14.2839   -2.1229   59.1720 H       1  ZINC001179023006    0.0500
     28 H28       -13.1367   -1.8321   60.5016 H       1  ZINC001179023006    0.0600
     29 H29       -12.3756    0.2465   59.4153 H       1  ZINC001179023006    0.0700
     30 H30       -13.5569    0.0104   58.1049 H       1  ZINC001179023006    0.0700
     31 H31       -11.1167   -1.0245   60.2170 H       1  ZINC001179023006    0.0900
     32 H32        -9.3965   -1.3611   60.5395 H       1  ZINC001179023006    0.0800
     33 H33       -10.1560    0.4255   62.0294 H       1  ZINC001179023006    0.0800
     34 H34       -10.7698    1.3580   60.6425 H       1  ZINC001179023006    0.0800
     35 H35        -7.4811    2.1242   59.1468 H       1  ZINC001179023006    0.0800
     36 H36        -9.2436    2.3264   58.9964 H       1  ZINC001179023006    0.0800
     37 H37        -7.6807   -0.2794   58.6944 H       1  ZINC001179023006    0.1200
     38 H38        -8.4916    0.6299   57.3935 H       1  ZINC001179023006    0.0800
     39 H39        -7.5148    2.9614   61.5116 H       1  ZINC001179023006    0.0800
     40 H40        -9.2420    3.2709   61.2479 H       1  ZINC001179023006    0.0900
     41 H41       -10.6857    3.2711   63.0029 H       1  ZINC001179023006    0.1200
     42 H42       -11.2311    2.7566   65.3452 H       1  ZINC001179023006    0.1200
     43 H43        -9.6540    1.4662   66.7281 H       1  ZINC001179023006    0.1300
     44 H44        -7.5054    0.7214   65.7635 H       1  ZINC001179023006    0.1300
     45 H45        -5.9825    0.6971   64.0430 H       1  ZINC001179023006    0.0900
     46 H46        -6.0647    2.0334   62.8783 H       1  ZINC001179023006    0.0800
     47 H47        -6.2104   -0.5885   62.2295 H       1  ZINC001179023006    0.4000
     48 H48       -13.6001   -2.2913   56.9737 H       1  ZINC001179023006    0.0900
     49 H49       -12.2335   -1.7195   55.9217 H       1  ZINC001179023006    0.0800
     50 H50       -10.6902   -3.3690   56.8750 H       1  ZINC001179023006    0.0800
     51 H51       -12.2098   -4.2979   57.2308 H       1  ZINC001179023006    0.0700
     52 H52       -10.7620   -2.8552   59.2702 H       1  ZINC001179023006    0.0700
     53 H53       -12.5622   -3.0923   59.3356 H       1  ZINC001179023006    0.0900
@<TRIPOS>BOND
     1     1     2    1
     2     1    26    1
     3     1    27    1
     4     1    28    1
     5     2     3    1
     6     2    29    1
     7     2    30    1
     8     3    25    1
     9     3     4    1
    10     3    23    1
    11     4     5    2
    12     4     6   am
    13     6    11    1
    14     6     7    1
    15     7     8    1
    16     7    31    1
    17     7    32    1
    18     8     9    1
    19     8    33    1
    20     8    34    1
    21     9    21    1
    22     9    10    1
    23     9    12    1
    24    10    11    1
    25    10    35    1
    26    10    36    1
    27    11    37    1
    28    11    38    1
    29    12    13    1
    30    12    39    1
    31    12    40    1
    32    13    18   ar
    33    13    14   ar
    34    14    15   ar
    35    14    41    1
    36    15    16   ar
    37    15    42    1
    38    16    17   ar
    39    16    43    1
    40    17    18   ar
    41    17    44    1
    42    18    19    1
    43    19    20    1
    44    19    45    1
    45    19    46    1
    46    20    21   am
    47    20    47    1
    48    21    22    2
    49    23    24    1
    50    23    48    1
    51    23    49    1
    52    24    25    1
    53    24    50    1
    54    24    51    1
    55    25    52    1
    56    25    53    1
@<TRIPOS>SUBSTRUCTURE
     1 ZINC001179023006        1 TEMP              0 ****  ****    0 ROOT


##########                                Name:    ZINC000675319328
##########                DOCK_Rotatable_Bonds:                   7
##########                         Heavy_Atoms:                  26
##########                    Molecular_Weight:             363.475
##########                DOCK_Rotatable_Bonds:                   7
##########                       Formal_Charge:          -0.0200007
##########                     HBond_Acceptors:                   6
##########                        HBond_Donors:                   1
##########                         Heavy_Atoms:                  26
##########                          Grid_Score:          -25.306950
##########                     Grid_vdw_energy:          -25.339775
##########                      Grid_es_energy:            0.032825
##########           Internal_energy_repulsive:           20.971542

@<TRIPOS>MOLECULE
ZINC000675319328
 56 58 1 0 0
SMALL
USER_CHARGES


@<TRIPOS>ATOM
      1 C1        -11.6612    2.3626   52.1294 C.3     1  ZINC000675319328   -0.1600
      2 C2        -11.8606    0.9429   52.6635 C.3     1  ZINC000675319328    0.1600
      3 H3        -11.5602    0.2228   51.9024 H       1  ZINC000675319328    0.0900
      4 C4        -13.3354    0.7314   53.0118 C.3     1  ZINC000675319328   -0.1200
      5 C5        -14.1646    0.7067   51.7263 C.3     1  ZINC000675319328   -0.1200
      6 H6        -14.2110    1.6990   51.2775 H       1  ZINC000675319328    0.0800
      7 C7        -13.5931   -0.3288   50.7198 C.3     1  ZINC000675319328   -0.1500
      8 C8        -14.8707   -0.7054   49.9281 C.3     1  ZINC000675319328    0.0500
      9 O9        -15.9295   -0.6975   50.8988 O.3     1  ZINC000675319328   -0.3900
     10 C10       -15.5824    0.1595   51.9974 C.3     1  ZINC000675319328    0.0500
     11 N11       -11.0432    0.7536   53.8645 N.am    1  ZINC000675319328   -0.7400
     12 C12       -10.6918   -0.4887   54.2515 C.2     1  ZINC000675319328    0.7000
     13 O13       -11.0531   -1.4522   53.6039 O.2     1  ZINC000675319328   -0.5900
     14 N14        -9.9398   -0.6628   55.3564 N.am    1  ZINC000675319328   -0.6200
     15 C15        -9.5165    0.5262   56.1217 C.3     1  ZINC000675319328    0.1300
     16 C16        -9.6346    0.2871   57.6363 C.3     1  ZINC000675319328   -0.1300
     17 C17       -10.9021   -0.4842   57.9316 C.3     1  ZINC000675319328    0.0700
     18 N18       -10.5989   -1.9142   57.9482 N.3     1  ZINC000675319328   -0.5500
     19 C19       -11.4083   -2.6124   58.9559 C.3     1  ZINC000675319328    0.1000
     20 C20       -12.8702   -2.4419   58.6321 C.ar    1  ZINC000675319328   -0.0900
     21 C21       -13.5943   -1.4235   59.2234 C.ar    1  ZINC000675319328   -0.0900
     22 C22       -14.9350   -1.2662   58.9273 C.ar    1  ZINC000675319328   -0.1500
     23 C23       -15.5528   -2.1287   58.0377 C.ar    1  ZINC000675319328    0.1000
     24 F24       -16.8633   -1.9756   57.7472 F       1  ZINC000675319328   -0.1400
     25 C25       -14.8264   -3.1481   57.4457 C.ar    1  ZINC000675319328   -0.1500
     26 C26       -13.4847   -3.3005   57.7398 C.ar    1  ZINC000675319328   -0.0700
     27 C27       -10.6538   -2.5820   56.7024 C.3     1  ZINC000675319328    0.0500
     28 C28        -9.5827   -2.0104   55.7509 C.3     1  ZINC000675319328    0.1100
     29 H29       -10.6105    2.5132   51.8812 H       1  ZINC000675319328    0.0600
     30 H30       -12.2693    2.5035   51.2359 H       1  ZINC000675319328    0.0700
     31 H31       -11.9615    3.0827   52.8906 H       1  ZINC000675319328    0.0500
     32 H32       -13.4522   -0.2162   53.5378 H       1  ZINC000675319328    0.0700
     33 H33       -13.6783    1.5458   53.6499 H       1  ZINC000675319328    0.0900
     34 H34       -12.8473    0.1266   50.0684 H       1  ZINC000675319328    0.0800
     35 H35       -13.1825   -1.1953   51.2382 H       1  ZINC000675319328    0.0800
     36 H36       -15.0651    0.0328   49.1502 H       1  ZINC000675319328    0.0600
     37 H37       -14.7658   -1.6984   49.4907 H       1  ZINC000675319328    0.0900
     38 H38       -15.5844   -0.4110   52.9263 H       1  ZINC000675319328    0.0700
     39 H39       -16.2955    0.9811   52.0652 H       1  ZINC000675319328    0.0700
     40 H40       -10.7549    1.5222   54.3810 H       1  ZINC000675319328    0.3900
     41 H41        -8.4799    0.7579   55.8768 H       1  ZINC000675319328    0.0600
     42 H42       -10.1454    1.3721   55.8438 H       1  ZINC000675319328    0.0900
     43 H43        -8.7732   -0.2845   57.9817 H       1  ZINC000675319328    0.0800
     44 H44        -9.6644    1.2459   58.1538 H       1  ZINC000675319328    0.0800
     45 H45       -11.2937   -0.1833   58.9033 H       1  ZINC000675319328    0.0700
     46 H46       -11.6427   -0.2776   57.1591 H       1  ZINC000675319328    0.0400
     47 H47       -11.1567   -3.6729   58.9528 H       1  ZINC000675319328    0.0900
     48 H48       -11.2030   -2.1932   59.9409 H       1  ZINC000675319328    0.0400
     49 H49       -13.1122   -0.7508   59.9172 H       1  ZINC000675319328    0.1300
     50 H50       -15.5007   -0.4709   59.3899 H       1  ZINC000675319328    0.1400
     51 H51       -15.3073   -3.8218   56.7520 H       1  ZINC000675319328    0.1400
     52 H52       -12.9178   -4.0952   57.2779 H       1  ZINC000675319328    0.1300
     53 H53       -10.4738   -3.6463   56.8543 H       1  ZINC000675319328    0.0900
     54 H54       -11.6405   -2.4430   56.2606 H       1  ZINC000675319328    0.0300
     55 H55        -9.5132   -2.6394   54.8634 H       1  ZINC000675319328    0.0700
     56 H56        -8.6185   -1.9930   56.2587 H       1  ZINC000675319328    0.0900
@<TRIPOS>BOND
     1     1     2    1
     2     1    29    1
     3     1    30    1
     4     1    31    1
     5     2     3    1
     6     2     4    1
     7     2    11    1
     8     4     5    1
     9     4    32    1
    10     4    33    1
    11     5     6    1
    12     5    10    1
    13     5     7    1
    14     7     8    1
    15     7    34    1
    16     7    35    1
    17     8     9    1
    18     8    36    1
    19     8    37    1
    20     9    10    1
    21    10    38    1
    22    10    39    1
    23    11    12   am
    24    11    40    1
    25    12    13    2
    26    12    14   am
    27    14    28    1
    28    14    15    1
    29    15    16    1
    30    15    41    1
    31    15    42    1
    32    16    17    1
    33    16    43    1
    34    16    44    1
    35    17    18    1
    36    17    45    1
    37    17    46    1
    38    18    19    1
    39    18    27    1
    40    19    20    1
    41    19    47    1
    42    19    48    1
    43    20    26   ar
    44    20    21   ar
    45    21    22   ar
    46    21    49    1
    47    22    23   ar
    48    22    50    1
    49    23    24    1
    50    23    25   ar
    51    25    26   ar
    52    25    51    1
    53    26    52    1
    54    27    28    1
    55    27    53    1
    56    27    54    1
    57    28    55    1
    58    28    56    1
@<TRIPOS>SUBSTRUCTURE
     1 ZINC000675319328        1 TEMP              0 ****  ****    0 ROOT


##########                                Name:    ZINC000949401225
##########                DOCK_Rotatable_Bonds:                   7
##########                         Heavy_Atoms:                  24
##########                    Molecular_Weight:             332.403
##########                DOCK_Rotatable_Bonds:                   7
##########                       Formal_Charge:                0.03
##########                     HBond_Acceptors:                   7
##########                        HBond_Donors:                   1
##########                         Heavy_Atoms:                  24
##########                          Grid_Score:          -25.289679
##########                     Grid_vdw_energy:          -22.463934
##########                      Grid_es_energy:           -2.825745
##########           Internal_energy_repulsive:           15.033712

@<TRIPOS>MOLECULE
ZINC000949401225
 48 50 1 0 0
SMALL
USER_CHARGES


@<TRIPOS>ATOM
      1 C1        -10.8802    2.7693   52.0329 C.3     1  ZINC000949401225    0.0700
      2 N2        -11.1981    1.6556   52.9299 N.pl3   1  ZINC000949401225   -0.4500
      3 C3        -12.4187    1.4367   53.4990 C.2     1  ZINC000949401225   -0.0100
      4 C4        -12.3513    0.3301   54.2604 C.2     1  ZINC000949401225   -0.1700
      5 C5        -10.9757   -0.1663   54.1455 C.2     1  ZINC000949401225   -0.2400
      6 C6        -10.4076   -1.3584   54.7975 C.2     1  ZINC000949401225    0.5900
      7 O7         -9.2870   -1.7331   54.5094 O.2     1  ZINC000949401225   -0.5500
      8 N8        -11.1296   -2.0340   55.7133 N.am    1  ZINC000949401225   -0.7300
      9 C9        -10.5651   -3.2208   56.3606 C.3     1  ZINC000949401225    0.1200
     10 C10       -10.4964   -2.9935   57.8721 C.3     1  ZINC000949401225    0.1200
     11 H11       -10.0567   -3.8364   58.4053 H       1  ZINC000949401225    0.1000
     12 C12        -9.8856   -1.6395   58.2594 C.3     1  ZINC000949401225   -0.1500
     13 C13       -10.9778   -1.6572   59.3379 C.3     1  ZINC000949401225    0.1000
     14 N14       -11.7655   -2.5305   58.4532 N.am    1  ZINC000949401225   -0.6400
     15 C15       -13.0739   -2.7897   58.2596 C.2     1  ZINC000949401225    0.5500
     16 O16       -13.4148   -3.5949   57.4192 O.2     1  ZINC000949401225   -0.5200
     17 C17       -14.1133   -2.0790   59.0877 C.3     1  ZINC000949401225   -0.1400
     18 C18       -14.2826   -0.6475   58.5747 C.3     1  ZINC000949401225    0.1500
     19 H19       -13.3096   -0.2103   58.3500 H       1  ZINC000949401225    0.0900
     20 C20       -15.1785   -0.6332   57.3162 C.3     1  ZINC000949401225   -0.1200
     21 C21       -15.9558    0.6912   57.4977 C.3     1  ZINC000949401225   -0.1600
     22 C22       -15.9321    0.9337   58.9908 C.2     1  ZINC000949401225    0.5200
     23 O23       -16.6573    1.7063   59.5806 O.2     1  ZINC000949401225   -0.5300
     24 N24       -14.9886    0.1684   59.5695 N.am    1  ZINC000949401225   -0.6200
     25 C25       -14.7056    0.1508   61.0068 C.3     1  ZINC000949401225    0.0900
     26 C26       -10.3289    0.6982   53.3060 C.2     1  ZINC000949401225    0.0800
     27 H27       -11.0807    2.4748   51.0028 H       1  ZINC000949401225    0.0800
     28 H28       -11.4963    3.6308   52.2908 H       1  ZINC000949401225    0.0900
     29 H29        -9.8274    3.0312   52.1377 H       1  ZINC000949401225    0.0900
     30 H30       -13.2957    2.0516   53.3608 H       1  ZINC000949401225    0.1700
     31 H31       -13.1506   -0.1061   54.8410 H       1  ZINC000949401225    0.1500
     32 H32       -12.0228   -1.7344   55.9439 H       1  ZINC000949401225    0.4000
     33 H33       -11.1971   -4.0840   56.1514 H       1  ZINC000949401225    0.0700
     34 H34        -9.5621   -3.4029   55.9746 H       1  ZINC000949401225    0.0900
     35 H35        -8.8703   -1.7027   58.6505 H       1  ZINC000949401225    0.1000
     36 H36       -10.0125   -0.8606   57.5076 H       1  ZINC000949401225    0.1000
     37 H37       -10.6670   -2.1441   60.2623 H       1  ZINC000949401225    0.0900
     38 H38       -11.4361   -0.6829   59.5075 H       1  ZINC000949401225    0.0800
     39 H39       -15.0633   -2.6075   59.0102 H       1  ZINC000949401225    0.1000
     40 H40       -13.7942   -2.0560   60.1297 H       1  ZINC000949401225    0.1000
     41 H41       -14.5756   -0.6103   56.4085 H       1  ZINC000949401225    0.1000
     42 H42       -15.8570   -1.4861   57.3107 H       1  ZINC000949401225    0.0800
     43 H43       -15.4542    1.5032   56.9713 H       1  ZINC000949401225    0.1100
     44 H44       -16.9815    0.5829   57.1451 H       1  ZINC000949401225    0.1000
     45 H45       -15.4272    0.7808   61.5270 H       1  ZINC000949401225    0.0800
     46 H46       -14.7802   -0.8709   61.3793 H       1  ZINC000949401225    0.0600
     47 H47       -13.6988    0.5294   61.1836 H       1  ZINC000949401225    0.0600
     48 H48        -9.2949    0.6288   53.0018 H       1  ZINC000949401225    0.1800
@<TRIPOS>BOND
     1     1     2    1
     2     1    27    1
     3     1    28    1
     4     1    29    1
     5     2    26    1
     6     2     3    1
     7     3     4    2
     8     3    30    1
     9     4     5    1
    10     4    31    1
    11     5     6    1
    12     5    26    2
    13     6     7    2
    14     6     8   am
    15     8     9    1
    16     8    32    1
    17     9    10    1
    18     9    33    1
    19     9    34    1
    20    10    11    1
    21    10    14    1
    22    10    12    1
    23    12    13    1
    24    12    35    1
    25    12    36    1
    26    13    14    1
    27    13    37    1
    28    13    38    1
    29    14    15   am
    30    15    16    2
    31    15    17    1
    32    17    18    1
    33    17    39    1
    34    17    40    1
    35    18    19    1
    36    18    24    1
    37    18    20    1
    38    20    21    1
    39    20    41    1
    40    20    42    1
    41    21    22    1
    42    21    43    1
    43    21    44    1
    44    22    23    2
    45    22    24   am
    46    24    25    1
    47    25    45    1
    48    25    46    1
    49    25    47    1
    50    26    48    1
@<TRIPOS>SUBSTRUCTURE
     1 ZINC000949401225        1 TEMP              0 ****  ****    0 ROOT


##########                                Name:    ZINC000629379364
##########                DOCK_Rotatable_Bonds:                   5
##########                         Heavy_Atoms:                  23
##########                    Molecular_Weight:             386.261
##########                DOCK_Rotatable_Bonds:                   5
##########                       Formal_Charge:               -0.02
##########                     HBond_Acceptors:                   5
##########                        HBond_Donors:                   1
##########                         Heavy_Atoms:                  23
##########                          Grid_Score:          -25.281923
##########                     Grid_vdw_energy:          -21.887270
##########                      Grid_es_energy:           -3.394653
##########           Internal_energy_repulsive:           25.903868

@<TRIPOS>MOLECULE
ZINC000629379364
 44 46 1 0 0
SMALL
USER_CHARGES


@<TRIPOS>ATOM
      1 O1        -14.5717    1.9341   58.1935 O.co2   1  ZINC000629379364   -0.6800
      2 C2        -15.4598    1.2378   58.6548 C.2     1  ZINC000629379364    0.5000
      3 O3        -16.5957    1.6734   58.7369 O.co2   1  ZINC000629379364   -0.6900
      4 C4        -15.1551   -0.1636   59.1176 C.3     1  ZINC000629379364   -0.1600
      5 H5        -15.8833   -0.4746   59.8669 H       1  ZINC000629379364    0.0800
      6 C6        -13.7351   -0.2256   59.7071 C.3     1  ZINC000629379364   -0.1300
      7 C7        -13.3432   -1.6591   60.0524 C.3     1  ZINC000629379364   -0.0100
      8 N8        -13.4896   -2.5618   58.8943 N.4     1  ZINC000629379364   -0.3700
      9 H9        -13.2246   -3.4998   59.1551 H       1  ZINC000629379364    0.4200
     10 C10       -12.6448   -2.0944   57.7872 C.3     1  ZINC000629379364   -0.0200
     11 C11       -11.4071   -2.9870   57.6780 C.3     1  ZINC000629379364    0.0300
     12 O12       -10.7959   -2.7998   56.3999 O.3     1  ZINC000629379364   -0.3200
     13 C13       -10.1967   -1.6015   56.1722 C.ar    1  ZINC000629379364    0.1600
     14 C14        -9.7814   -1.2650   54.8926 C.ar    1  ZINC000629379364   -0.2300
     15 C15        -9.1714   -0.0442   54.6630 C.ar    1  ZINC000629379364    0.1500
     16 F16        -8.7665    0.2847   53.4167 F       1  ZINC000629379364   -0.1200
     17 C17        -8.9763    0.8404   55.7102 C.ar    1  ZINC000629379364   -0.1600
     18 C18        -9.3899    0.5052   56.9871 C.ar    1  ZINC000629379364   -0.0300
     19 Br19       -9.1220    1.7156   58.4151 Br      1  ZINC000629379364   -0.0100
     20 C20       -10.0047   -0.7109   57.2188 C.ar    1  ZINC000629379364   -0.1300
     21 C21       -14.8877   -2.5361   58.4957 C.3     1  ZINC000629379364   -0.0100
     22 H22       -15.5248   -2.7391   59.3565 H       1  ZINC000629379364    0.1400
     23 C23       -15.2781   -3.4471   57.3273 C.3     1  ZINC000629379364   -0.1300
     24 C24       -16.5797   -2.7903   56.7924 C.3     1  ZINC000629379364   -0.1200
     25 C25       -16.5275   -1.3037   57.2229 C.3     1  ZINC000629379364   -0.1100
     26 C26       -15.1856   -1.1185   57.9367 C.3     1  ZINC000629379364   -0.0700
     27 H27       -14.4124   -0.8599   57.2132 H       1  ZINC000629379364    0.1000
     28 H28       -13.0284    0.1724   58.9789 H       1  ZINC000629379364    0.0800
     29 H29       -13.6964    0.3828   60.6106 H       1  ZINC000629379364    0.1100
     30 H30       -12.3050   -1.6732   60.3845 H       1  ZINC000629379364    0.1200
     31 H31       -13.9786   -2.0155   60.8630 H       1  ZINC000629379364    0.1300
     32 H32       -13.2089   -2.1397   56.8555 H       1  ZINC000629379364    0.1400
     33 H33       -12.3357   -1.0661   57.9751 H       1  ZINC000629379364    0.1700
     34 H34       -10.6978   -2.7221   58.4622 H       1  ZINC000629379364    0.1100
     35 H35       -11.7006   -4.0307   57.7910 H       1  ZINC000629379364    0.0900
     36 H36        -9.9337   -1.9552   54.0760 H       1  ZINC000629379364    0.1500
     37 H37        -8.5005    1.7931   55.5300 H       1  ZINC000629379364    0.1500
     38 H38       -10.3276   -0.9716   58.2159 H       1  ZINC000629379364    0.1500
     39 H39       -14.5027   -3.4454   56.5613 H       1  ZINC000629379364    0.0800
     40 H40       -15.4737   -4.4607   57.6773 H       1  ZINC000629379364    0.0900
     41 H41       -16.6164   -2.8639   55.7055 H       1  ZINC000629379364    0.0800
     42 H42       -17.4513   -3.2764   57.2305 H       1  ZINC000629379364    0.0800
     43 H43       -16.5946   -0.6552   56.3494 H       1  ZINC000629379364    0.0900
     44 H44       -17.3364   -1.0841   57.9199 H       1  ZINC000629379364    0.0800
@<TRIPOS>BOND
     1     1     2   ar
     2     2     3   ar
     3     2     4    1
     4     4     5    1
     5     4    26    1
     6     4     6    1
     7     6     7    1
     8     6    28    1
     9     6    29    1
    10     7     8    1
    11     7    30    1
    12     7    31    1
    13     8     9    1
    14     8    10    1
    15     8    21    1
    16    10    11    1
    17    10    32    1
    18    10    33    1
    19    11    12    1
    20    11    34    1
    21    11    35    1
    22    12    13    1
    23    13    20   ar
    24    13    14   ar
    25    14    15   ar
    26    14    36    1
    27    15    16    1
    28    15    17   ar
    29    17    18   ar
    30    17    37    1
    31    18    19    1
    32    18    20   ar
    33    20    38    1
    34    21    22    1
    35    21    26    1
    36    21    23    1
    37    23    24    1
    38    23    39    1
    39    23    40    1
    40    24    25    1
    41    24    41    1
    42    24    42    1
    43    25    26    1
    44    25    43    1
    45    25    44    1
    46    26    27    1
@<TRIPOS>SUBSTRUCTURE
     1 ZINC000629379364        1 TEMP              0 ****  ****    0 ROOT


##########                                Name:    ZINC001067316277
##########                DOCK_Rotatable_Bonds:                   5
##########                         Heavy_Atoms:                  24
##########                    Molecular_Weight:             345.469
##########                DOCK_Rotatable_Bonds:                   5
##########                       Formal_Charge:          -0.0200007
##########                     HBond_Acceptors:                   7
##########                        HBond_Donors:                   2
##########                         Heavy_Atoms:                  24
##########                          Grid_Score:          -25.241589
##########                     Grid_vdw_energy:          -24.409760
##########                      Grid_es_energy:           -0.831829
##########           Internal_energy_repulsive:            8.780902

@<TRIPOS>MOLECULE
ZINC001067316277
 47 49 1 0 0
SMALL
USER_CHARGES


@<TRIPOS>ATOM
      1 C1         -6.2961    0.4773   63.0780 C.3     1  ZINC001067316277   -0.1400
      2 S2         -7.1263    0.6825   64.6733 S.3     1  ZINC001067316277   -0.0400
      3 C3         -8.7707    0.9967   64.1242 C.ar    1  ZINC001067316277    0.1800
      4 C4         -9.7511    1.4173   65.0264 C.ar    1  ZINC001067316277   -0.2400
      5 C5        -11.0264    1.6516   64.5513 C.ar    1  ZINC001067316277    0.1900
      6 N6        -11.2818    1.4723   63.2634 N.ar    1  ZINC001067316277   -0.5600
      7 C7        -10.3325    1.0727   62.4296 C.ar    1  ZINC001067316277    0.5100
      8 N8        -10.6396    0.8972   61.0916 N.3     1  ZINC001067316277   -0.4600
      9 C9         -9.4197    0.7995   60.2801 C.3     1  ZINC001067316277    0.0700
     10 C10        -9.7944    0.7526   58.7971 C.3     1  ZINC001067316277   -0.1300
     11 C11       -10.6977   -0.4570   58.5419 C.3     1  ZINC001067316277    0.1600
     12 H12       -10.1547   -1.3728   58.7755 H       1  ZINC001067316277    0.0900
     13 N13       -11.1059   -0.4751   57.1349 N.am    1  ZINC001067316277   -0.7200
     14 C14       -10.3718   -1.1510   56.2290 C.2     1  ZINC001067316277    0.5900
     15 O15        -9.3692   -1.7452   56.5794 O.2     1  ZINC001067316277   -0.5300
     16 C16       -10.7814   -1.1706   54.8207 C.2     1  ZINC001067316277   -0.0600
     17 C17       -11.8563   -0.5013   54.2752 C.2     1  ZINC001067316277   -0.1000
     18 C18       -11.8754   -0.7991   52.9091 C.2     1  ZINC001067316277   -0.2100
     19 C19       -10.8350   -1.6268   52.6497 C.2     1  ZINC001067316277    0.0300
     20 N20       -10.1592   -1.8559   53.8019 N.pl3   1  ZINC001067316277   -0.5400
     21 C21       -11.9377   -0.3555   59.4345 C.3     1  ZINC001067316277   -0.0700
     22 C22       -12.7287    0.9021   59.0689 C.3     1  ZINC001067316277   -0.1400
     23 C23       -12.8175   -1.5902   59.2289 C.3     1  ZINC001067316277   -0.1400
     24 C24       -11.5008   -0.2765   60.8990 C.3     1  ZINC001067316277    0.0800
     25 N25        -9.0958    0.8425   62.8437 N.ar    1  ZINC001067316277   -0.5400
     26 H26        -6.7489   -0.3537   62.5371 H       1  ZINC001067316277    0.0900
     27 H27        -6.4009    1.3914   62.4936 H       1  ZINC001067316277    0.0900
     28 H28        -5.2386    0.2705   63.2426 H       1  ZINC001067316277    0.1000
     29 H29        -9.5171    1.5555   66.0716 H       1  ZINC001067316277    0.1500
     30 H30       -11.8075    1.9772   65.2222 H       1  ZINC001067316277    0.1700
     31 H31        -8.7881    1.6678   60.4679 H       1  ZINC001067316277    0.1000
     32 H32        -8.8778   -0.1079   60.5467 H       1  ZINC001067316277    0.0500
     33 H33       -10.3241    1.6661   58.5266 H       1  ZINC001067316277    0.0800
     34 H34        -8.8895    0.6644   58.1958 H       1  ZINC001067316277    0.0800
     35 H35       -11.9044   -0.0005   56.8555 H       1  ZINC001067316277    0.3900
     36 H36       -12.5524    0.1332   54.8035 H       1  ZINC001067316277    0.1500
     37 H37       -12.5925   -0.4343   52.1887 H       1  ZINC001067316277    0.1500
     38 H38       -10.5830   -2.0346   51.6818 H       1  ZINC001067316277    0.1700
     39 H39        -9.3715   -2.4144   53.8943 H       1  ZINC001067316277    0.4100
     40 H40       -13.0366    0.8470   58.0247 H       1  ZINC001067316277    0.0500
     41 H41       -13.6112    0.9738   59.7045 H       1  ZINC001067316277    0.0600
     42 H42       -12.1019    1.7814   59.2168 H       1  ZINC001067316277    0.0700
     43 H43       -12.2540   -2.4856   59.4909 H       1  ZINC001067316277    0.0600
     44 H44       -13.7000   -1.5173   59.8645 H       1  ZINC001067316277    0.0600
     45 H45       -13.1255   -1.6471   58.1848 H       1  ZINC001067316277    0.0600
     46 H46       -10.9493   -1.1789   61.1627 H       1  ZINC001067316277    0.0600
     47 H47       -12.3809   -0.1898   61.5364 H       1  ZINC001067316277    0.1000
@<TRIPOS>BOND
     1     1     2    1
     2     1    26    1
     3     1    27    1
     4     1    28    1
     5     2     3    1
     6     3    25   ar
     7     3     4   ar
     8     4     5   ar
     9     4    29    1
    10     5     6   ar
    11     5    30    1
    12     6     7   ar
    13     7     8    1
    14     7    25   ar
    15     8    24    1
    16     8     9    1
    17     9    10    1
    18     9    31    1
    19     9    32    1
    20    10    11    1
    21    10    33    1
    22    10    34    1
    23    11    12    1
    24    11    13    1
    25    11    21    1
    26    13    14   am
    27    13    35    1
    28    14    15    2
    29    14    16    1
    30    16    20    1
    31    16    17    2
    32    17    18    1
    33    17    36    1
    34    18    19    2
    35    18    37    1
    36    19    20    1
    37    19    38    1
    38    20    39    1
    39    21    22    1
    40    21    23    1
    41    21    24    1
    42    22    40    1
    43    22    41    1
    44    22    42    1
    45    23    43    1
    46    23    44    1
    47    23    45    1
    48    24    46    1
    49    24    47    1
@<TRIPOS>SUBSTRUCTURE
     1 ZINC001067316277        1 TEMP              0 ****  ****    0 ROOT


##########                                Name:    ZINC000482910431
##########                DOCK_Rotatable_Bonds:                   7
##########                         Heavy_Atoms:                  29
##########                    Molecular_Weight:             414.867
##########                DOCK_Rotatable_Bonds:                   7
##########                       Formal_Charge:          -0.0300001
##########                     HBond_Acceptors:                   8
##########                        HBond_Donors:                   2
##########                         Heavy_Atoms:                  29
##########                          Grid_Score:          -25.240656
##########                     Grid_vdw_energy:          -24.596294
##########                      Grid_es_energy:           -0.644362
##########           Internal_energy_repulsive:           16.477591

@<TRIPOS>MOLECULE
ZINC000482910431
 49 51 1 0 0
SMALL
USER_CHARGES


@<TRIPOS>ATOM
      1 C1        -14.1961   -0.7772   49.0102 C.3     1  ZINC000482910431   -0.1500
      2 C2        -14.4123    0.4903   49.8392 C.3     1  ZINC000482910431    0.0800
      3 C3        -13.5949    1.6369   49.2406 C.3     1  ZINC000482910431   -0.1400
      4 C4        -15.8403    0.8473   49.8267 C.1     1  ZINC000482910431    0.2100
      5 N5        -16.9424    1.1227   49.8170 N.1     1  ZINC000482910431   -0.4300
      6 C6        -13.9685    0.2444   51.2582 C.ar    1  ZINC000482910431   -0.1000
      7 C7        -12.9963   -0.7027   51.5226 C.ar    1  ZINC000482910431   -0.0900
      8 C8        -12.5869   -0.9302   52.8219 C.ar    1  ZINC000482910431   -0.1200
      9 C9        -13.1528   -0.2066   53.8633 C.ar    1  ZINC000482910431    0.1700
     10 N10       -12.7399   -0.4344   55.1810 N.am    1  ZINC000482910431   -0.6800
     11 C11       -11.4761   -0.1470   55.5503 C.2     1  ZINC000482910431    0.7100
     12 O12       -10.6946    0.3101   54.7387 O.2     1  ZINC000482910431   -0.5500
     13 N13       -11.0784   -0.3664   56.8193 N.am    1  ZINC000482910431   -0.7300
     14 C14        -9.7041   -0.0557   57.2203 C.3     1  ZINC000482910431    0.1400
     15 H15        -8.9934   -0.5780   56.5799 H       1  ZINC000482910431    0.1400
     16 C16        -9.4577    1.4701   57.1706 C.3     1  ZINC000482910431   -0.1400
     17 C17        -8.5288    1.6789   58.3872 C.3     1  ZINC000482910431    0.0900
     18 N18        -8.8259    0.5700   59.3016 N.am    1  ZINC000482910431   -0.5600
     19 C19        -8.4729    0.5469   60.6558 C.ar    1  ZINC000482910431    0.2000
     20 C20        -7.1601    0.2896   61.0277 C.ar    1  ZINC000482910431   -0.1600
     21 C21        -6.8129    0.2671   62.3647 C.ar    1  ZINC000482910431   -0.0500
     22 C22        -7.7716    0.5005   63.3339 C.ar    1  ZINC000482910431   -0.1000
     23 Cl23       -7.3316    0.4714   65.0131 Cl      1  ZINC000482910431   -0.0500
     24 C24        -9.0832    0.7582   62.9665 C.ar    1  ZINC000482910431    0.1400
     25 F25       -10.0179    0.9866   63.9148 F       1  ZINC000482910431   -0.1200
     26 C26        -9.4339    0.7869   61.6290 C.ar    1  ZINC000482910431   -0.1900
     27 C27        -9.4797   -0.4237   58.6705 C.2     1  ZINC000482910431    0.5000
     28 O28        -9.8386   -1.4591   59.1904 O.2     1  ZINC000482910431   -0.4800
     29 C29       -14.1290    0.7438   53.5945 C.ar    1  ZINC000482910431   -0.1400
     30 C30       -14.5301    0.9703   52.2925 C.ar    1  ZINC000482910431   -0.0900
     31 H31       -13.1387   -1.0415   49.0194 H       1  ZINC000482910431    0.0800
     32 H32       -14.7785   -1.5940   49.4366 H       1  ZINC000482910431    0.0700
     33 H33       -14.5172   -0.5993   47.9838 H       1  ZINC000482910431    0.0700
     34 H34       -13.9159    1.8148   48.2142 H       1  ZINC000482910431    0.0700
     35 H35       -13.7489    2.5399   49.8312 H       1  ZINC000482910431    0.0700
     36 H36       -12.5374    1.3726   49.2499 H       1  ZINC000482910431    0.0800
     37 H37       -12.5567   -1.2654   50.7122 H       1  ZINC000482910431    0.1400
     38 H38       -11.8278   -1.6703   53.0278 H       1  ZINC000482910431    0.1400
     39 H39       -13.3634   -0.7991   55.8283 H       1  ZINC000482910431    0.4100
     40 H40       -11.7022   -0.7299   57.4670 H       1  ZINC000482910431    0.4000
     41 H41        -8.9577    1.7544   56.2448 H       1  ZINC000482910431    0.1100
     42 H42       -10.3907    2.0201   57.2933 H       1  ZINC000482910431    0.1000
     43 H43        -7.4850    1.6414   58.0757 H       1  ZINC000482910431    0.0900
     44 H44        -8.7458    2.6327   58.8681 H       1  ZINC000482910431    0.1000
     45 H45        -6.4106    0.1068   60.2720 H       1  ZINC000482910431    0.1700
     46 H46        -5.7917    0.0665   62.6535 H       1  ZINC000482910431    0.1500
     47 H47       -10.4554    0.9880   61.3421 H       1  ZINC000482910431    0.1500
     48 H48       -14.5710    1.3082   54.4023 H       1  ZINC000482910431    0.1300
     49 H49       -15.2890    1.7096   52.0827 H       1  ZINC000482910431    0.1300
@<TRIPOS>BOND
     1     1     2    1
     2     1    31    1
     3     1    32    1
     4     1    33    1
     5     2     3    1
     6     2     4    1
     7     2     6    1
     8     3    34    1
     9     3    35    1
    10     3    36    1
    11     4     5    3
    12     6    30   ar
    13     6     7   ar
    14     7     8   ar
    15     7    37    1
    16     8     9   ar
    17     8    38    1
    18     9    10    1
    19     9    29   ar
    20    10    11   am
    21    10    39    1
    22    11    12    2
    23    11    13   am
    24    13    14    1
    25    13    40    1
    26    14    15    1
    27    14    27    1
    28    14    16    1
    29    16    17    1
    30    16    41    1
    31    16    42    1
    32    17    18    1
    33    17    43    1
    34    17    44    1
    35    18    19    1
    36    18    27   am
    37    19    26   ar
    38    19    20   ar
    39    20    21   ar
    40    20    45    1
    41    21    22   ar
    42    21    46    1
    43    22    23    1
    44    22    24   ar
    45    24    25    1
    46    24    26   ar
    47    26    47    1
    48    27    28    2
    49    29    30   ar
    50    29    48    1
    51    30    49    1
@<TRIPOS>SUBSTRUCTURE
     1 ZINC000482910431        1 TEMP              0 ****  ****    0 ROOT


##########                                Name:    ZINC000482962466
##########                DOCK_Rotatable_Bonds:                   2
##########                         Heavy_Atoms:                  25
##########                    Molecular_Weight:             404.303
##########                DOCK_Rotatable_Bonds:                   2
##########                       Formal_Charge:           0.0200002
##########                     HBond_Acceptors:                   4
##########                        HBond_Donors:                   0
##########                         Heavy_Atoms:                  25
##########                          Grid_Score:          -25.198547
##########                     Grid_vdw_energy:          -24.781754
##########                      Grid_es_energy:           -0.416793
##########           Internal_energy_repulsive:            5.943168

@<TRIPOS>MOLECULE
ZINC000482962466
 47 50 1 0 0
SMALL
USER_CHARGES


@<TRIPOS>ATOM
      1 C1        -10.5174   -3.6679   57.2596 C.3     1  ZINC000482962466   -0.1400
      2 C2        -11.4831   -2.5452   57.6442 C.3     1  ZINC000482962466    0.0700
      3 H3        -11.6255   -1.8799   56.7926 H       1  ZINC000482962466    0.0700
      4 C4        -10.9045   -1.7529   58.8220 C.3     1  ZINC000482962466    0.0800
      5 N5        -11.9270   -0.8049   59.2919 N.am    1  ZINC000482962466   -0.6100
      6 C6        -11.6368    0.5000   59.4640 C.2     1  ZINC000482962466    0.5600
      7 O7        -12.4956    1.2674   59.8530 O.2     1  ZINC000482962466   -0.5200
      8 C8        -10.2750    0.9978   59.1797 C.ar    1  ZINC000482962466   -0.1100
      9 C9         -9.3387    1.1032   60.2235 C.ar    1  ZINC000482962466   -0.0700
     10 C10        -8.0815    1.5576   59.9875 C.ar    1  ZINC000482962466   -0.1000
     11 C11        -7.7005    1.9302   58.6855 C.ar    1  ZINC000482962466   -0.0400
     12 C12        -6.4055    2.4030   58.4171 C.ar    1  ZINC000482962466   -0.0700
     13 C13        -6.0654    2.7560   57.1460 C.ar    1  ZINC000482962466   -0.0800
     14 Br14       -4.3200    3.3913   56.7913 Br      1  ZINC000482962466   -0.0400
     15 C15        -6.9851    2.6556   56.1023 C.ar    1  ZINC000482962466   -0.1000
     16 C16        -8.2486    2.2024   56.3244 C.ar    1  ZINC000482962466   -0.0900
     17 C17        -8.6358    1.8280   57.6240 C.ar    1  ZINC000482962466   -0.0500
     18 C18        -9.9286    1.3515   57.8859 C.ar    1  ZINC000482962466   -0.0700
     19 C19       -13.2761   -1.3241   59.5688 C.3     1  ZINC000482962466    0.0700
     20 C20       -13.7380   -2.1390   58.3568 C.3     1  ZINC000482962466    0.0800
     21 C21       -15.0521   -2.8496   58.6903 C.3     1  ZINC000482962466   -0.1100
     22 C22       -15.5460   -3.5960   57.4469 C.3     1  ZINC000482962466   -0.1500
     23 C23       -15.6966   -2.6027   56.2917 C.3     1  ZINC000482962466    0.0600
     24 O24       -14.4447   -1.9561   56.0538 O.3     1  ZINC000482962466   -0.3700
     25 C25       -13.9566   -1.2031   57.1661 C.3     1  ZINC000482962466    0.0400
     26 O26       -12.7409   -3.1074   58.0266 O.3     1  ZINC000482962466   -0.3500
     27 H27       -10.9303   -4.2319   56.4234 H       1  ZINC000482962466    0.0700
     28 H28        -9.5581   -3.2387   56.9700 H       1  ZINC000482962466    0.0800
     29 H29       -10.3755   -4.3328   58.1116 H       1  ZINC000482962466    0.0700
     30 H30       -10.6390   -2.4361   59.6288 H       1  ZINC000482962466    0.0800
     31 H31       -10.0190   -1.2065   58.4970 H       1  ZINC000482962466    0.1000
     32 H32        -9.6236    0.8195   61.2259 H       1  ZINC000482962466    0.1400
     33 H33        -7.3736    1.6334   60.7997 H       1  ZINC000482962466    0.1400
     34 H34        -5.6824    2.4867   59.2150 H       1  ZINC000482962466    0.1400
     35 H35        -6.6901    2.9420   55.1036 H       1  ZINC000482962466    0.1400
     36 H36        -8.9507    2.1303   55.5070 H       1  ZINC000482962466    0.1400
     37 H37       -10.6493    1.2651   57.0862 H       1  ZINC000482962466    0.1400
     38 H38       -13.2497   -1.9624   60.4521 H       1  ZINC000482962466    0.0900
     39 H39       -13.9620   -0.4935   59.7359 H       1  ZINC000482962466    0.1000
     40 H40       -14.8871   -3.5599   59.5005 H       1  ZINC000482962466    0.0800
     41 H41       -15.7972   -2.1145   58.9943 H       1  ZINC000482962466    0.0800
     42 H42       -14.8244   -4.3659   57.1737 H       1  ZINC000482962466    0.0800
     43 H43       -16.5104   -4.0578   57.6583 H       1  ZINC000482962466    0.0800
     44 H44       -16.0072   -3.1352   55.3928 H       1  ZINC000482962466    0.1000
     45 H45       -16.4478   -1.8564   56.5499 H       1  ZINC000482962466    0.0500
     46 H46       -14.6844   -0.4374   57.4345 H       1  ZINC000482962466    0.0600
     47 H47       -13.0122   -0.7293   56.8981 H       1  ZINC000482962466    0.1000
@<TRIPOS>BOND
     1     1     2    1
     2     1    27    1
     3     1    28    1
     4     1    29    1
     5     2     3    1
     6     2    26    1
     7     2     4    1
     8     4     5    1
     9     4    30    1
    10     4    31    1
    11     5     6   am
    12     5    19    1
    13     6     7    2
    14     6     8    1
    15     8    18   ar
    16     8     9   ar
    17     9    10   ar
    18     9    32    1
    19    10    11   ar
    20    10    33    1
    21    11    17   ar
    22    11    12   ar
    23    12    13   ar
    24    12    34    1
    25    13    14    1
    26    13    15   ar
    27    15    16   ar
    28    15    35    1
    29    16    17   ar
    30    16    36    1
    31    17    18   ar
    32    18    37    1
    33    19    20    1
    34    19    38    1
    35    19    39    1
    36    20    25    1
    37    20    21    1
    38    20    26    1
    39    21    22    1
    40    21    40    1
    41    21    41    1
    42    22    23    1
    43    22    42    1
    44    22    43    1
    45    23    24    1
    46    23    44    1
    47    23    45    1
    48    24    25    1
    49    25    46    1
    50    25    47    1
@<TRIPOS>SUBSTRUCTURE
     1 ZINC000482962466        1 TEMP              0 ****  ****    0 ROOT


##########                                Name:    ZINC000965273005
##########                DOCK_Rotatable_Bonds:                   7
##########                         Heavy_Atoms:                  27
##########                    Molecular_Weight:             368.436
##########                DOCK_Rotatable_Bonds:                   7
##########                       Formal_Charge:           0.0100003
##########                     HBond_Acceptors:                   7
##########                        HBond_Donors:                   2
##########                         Heavy_Atoms:                  27
##########                          Grid_Score:          -25.125351
##########                     Grid_vdw_energy:          -25.106596
##########                      Grid_es_energy:           -0.018755
##########           Internal_energy_repulsive:            9.971468

@<TRIPOS>MOLECULE
ZINC000965273005
 51 54 1 0 0
SMALL
USER_CHARGES


@<TRIPOS>ATOM
      1 C1         -7.5924    0.0023   58.7748 C.3     1  ZINC000965273005   -0.1200
      2 C2         -9.0037    0.4098   59.1113 C.ar    1  ZINC000965273005   -0.0300
      3 C3         -9.2334    1.4045   60.0391 C.ar    1  ZINC000965273005   -0.1200
      4 C4        -10.5286    1.7797   60.3493 C.ar    1  ZINC000965273005   -0.0900
      5 C5        -11.6011    1.1614   59.7319 C.ar    1  ZINC000965273005   -0.1300
      6 C6        -11.3853    0.1651   58.8021 C.ar    1  ZINC000965273005   -0.0900
      7 C7        -10.0813   -0.2145   58.4808 C.ar    1  ZINC000965273005   -0.1300
      8 C8         -9.8426   -1.2814   57.4855 C.2     1  ZINC000965273005    0.5800
      9 O9         -9.3844   -2.3505   57.8386 O.2     1  ZINC000965273005   -0.5200
     10 N10       -10.1330   -1.0686   56.1868 N.am    1  ZINC000965273005   -0.6100
     11 C11       -10.6846    0.1768   55.6226 C.3     1  ZINC000965273005    0.0900
     12 C12       -10.2602    0.1595   54.1330 C.3     1  ZINC000965273005    0.1500
     13 H13       -10.9394    0.7583   53.5262 H       1  ZINC000965273005    0.1200
     14 N14        -8.8775    0.6175   53.9755 N.am    1  ZINC000965273005   -0.7100
     15 C15        -8.6205    1.7795   53.3428 C.2     1  ZINC000965273005    0.6000
     16 O16        -9.5362    2.4469   52.9012 O.2     1  ZINC000965273005   -0.5400
     17 C17        -7.2293    2.2413   53.1858 C.2     1  ZINC000965273005   -0.2800
     18 C18        -6.2930    1.7373   52.3055 C.2     1  ZINC000965273005    0.1000
     19 N19        -5.1591    2.4341   52.4825 N.pl3   1  ZINC000965273005   -0.3600
     20 C20        -3.9061    2.2303   51.7512 C.3     1  ZINC000965273005    0.1000
     21 N21        -5.3761    3.3883   53.4827 N.2     1  ZINC000965273005   -0.3000
     22 C22        -6.6064    3.2865   53.9040 C.2     1  ZINC000965273005    0.1700
     23 C23        -7.2479    4.1291   54.9762 C.3     1  ZINC000965273005   -0.0800
     24 C24        -7.2879    3.5571   56.3947 C.3     1  ZINC000965273005   -0.1700
     25 C25        -6.3362    4.7073   56.0602 C.3     1  ZINC000965273005   -0.1600
     26 C26       -10.3900   -1.3481   53.7896 C.3     1  ZINC000965273005    0.0900
     27 H27       -11.4222   -1.6009   53.5471 H       1  ZINC000965273005    0.0900
     28 O28        -9.5192   -1.6980   52.7121 O.3     1  ZINC000965273005   -0.5500
     29 C29        -9.9464   -2.0375   55.0969 C.3     1  ZINC000965273005    0.0600
     30 H30        -7.2599    0.5425   57.8883 H       1  ZINC000965273005    0.0800
     31 H31        -6.9362    0.2394   59.6121 H       1  ZINC000965273005    0.0700
     32 H32        -7.5603   -1.0697   58.5803 H       1  ZINC000965273005    0.0700
     33 H33        -8.4004    1.8911   60.5246 H       1  ZINC000965273005    0.1300
     34 H34       -10.7030    2.5586   61.0768 H       1  ZINC000965273005    0.1300
     35 H35       -12.6096    1.4590   59.9785 H       1  ZINC000965273005    0.1300
     36 H36       -12.2235   -0.3171   58.3211 H       1  ZINC000965273005    0.1300
     37 H37       -11.7713    0.1831   55.7075 H       1  ZINC000965273005    0.0900
     38 H38       -10.2588    1.0435   56.1283 H       1  ZINC000965273005    0.0900
     39 H39        -8.1470    0.0845   54.3266 H       1  ZINC000965273005    0.4000
     40 H40        -6.4445    0.9303   51.6039 H       1  ZINC000965273005    0.1800
     41 H41        -3.9002    2.8561   50.8588 H       1  ZINC000965273005    0.0800
     42 H42        -3.0648    2.4998   52.3896 H       1  ZINC000965273005    0.1000
     43 H43        -3.8211    1.1830   51.4610 H       1  ZINC000965273005    0.0900
     44 H44        -8.0941    4.7359   54.6539 H       1  ZINC000965273005    0.1400
     45 H45        -8.1606    3.7874   57.0059 H       1  ZINC000965273005    0.1000
     46 H46        -6.8501    2.5713   56.5524 H       1  ZINC000965273005    0.1000
     47 H47        -5.2723    4.4784   55.9979 H       1  ZINC000965273005    0.0900
     48 H48        -6.5827    5.6944   56.4514 H       1  ZINC000965273005    0.1000
     49 H49        -9.8573   -1.4568   51.8389 H       1  ZINC000965273005    0.3900
     50 H50        -8.8976   -2.3260   55.0264 H       1  ZINC000965273005    0.0800
     51 H51       -10.5635   -2.9172   55.2800 H       1  ZINC000965273005    0.0800
@<TRIPOS>BOND
     1     1     2    1
     2     1    30    1
     3     1    31    1
     4     1    32    1
     5     2     7   ar
     6     2     3   ar
     7     3     4   ar
     8     3    33    1
     9     4     5   ar
    10     4    34    1
    11     5     6   ar
    12     5    35    1
    13     6     7   ar
    14     6    36    1
    15     7     8    1
    16     8     9    2
    17     8    10   am
    18    10    29    1
    19    10    11    1
    20    11    12    1
    21    11    37    1
    22    11    38    1
    23    12    13    1
    24    12    14    1
    25    12    26    1
    26    14    15   am
    27    14    39    1
    28    15    16    2
    29    15    17    1
    30    17    22    1
    31    17    18    2
    32    18    19    1
    33    18    40    1
    34    19    20    1
    35    19    21    1
    36    20    41    1
    37    20    42    1
    38    20    43    1
    39    21    22    2
    40    22    23    1
    41    23    25    1
    42    23    24    1
    43    23    44    1
    44    24    25    1
    45    24    45    1
    46    24    46    1
    47    25    47    1
    48    25    48    1
    49    26    27    1
    50    26    28    1
    51    26    29    1
    52    28    49    1
    53    29    50    1
    54    29    51    1
@<TRIPOS>SUBSTRUCTURE
     1 ZINC000965273005        1 TEMP              0 ****  ****    0 ROOT


##########                                Name:    ZINC000883773972
##########                DOCK_Rotatable_Bonds:                   4
##########                         Heavy_Atoms:                  23
##########                    Molecular_Weight:             343.447
##########                DOCK_Rotatable_Bonds:                   4
##########                       Formal_Charge:                0.01
##########                     HBond_Acceptors:                   8
##########                        HBond_Donors:                   1
##########                         Heavy_Atoms:                  23
##########                          Grid_Score:          -25.102104
##########                     Grid_vdw_energy:          -22.018745
##########                      Grid_es_energy:           -3.083359
##########           Internal_energy_repulsive:            5.904976

@<TRIPOS>MOLECULE
ZINC000883773972
 48 50 1 0 0
SMALL
USER_CHARGES


@<TRIPOS>ATOM
      1 C1         -4.3101    2.4727   65.2947 C.3     1  ZINC000883773972   -0.1700
      2 C2         -5.8033    2.5848   65.4651 C.2     1  ZINC000883773972    0.5300
      3 O3         -6.2627    3.1115   66.4562 O.2     1  ZINC000883773972   -0.5400
      4 N4         -6.6281    2.0999   64.5159 N.am    1  ZINC000883773972   -0.6200
      5 C5         -6.2333    1.4323   63.2646 C.3     1  ZINC000883773972    0.1100
      6 C6         -7.3440    0.4179   62.9452 C.3     1  ZINC000883773972   -0.1100
      7 H7         -7.0454   -0.6014   63.1901 H       1  ZINC000883773972    0.1000
      8 C8         -7.7510    0.5561   61.4686 C.3     1  ZINC000883773972    0.1300
      9 N9         -9.2213    0.6258   61.4481 N.am    1  ZINC000883773972   -0.6400
     10 C10       -10.0354    0.1791   60.4712 C.2     1  ZINC000883773972    0.7300
     11 O11        -9.5648   -0.3433   59.4793 O.2     1  ZINC000883773972   -0.5800
     12 N12       -11.3710    0.3117   60.5939 N.am    1  ZINC000883773972   -0.7400
     13 C13       -12.2558   -0.1723   59.5313 C.3     1  ZINC000883773972    0.1800
     14 H14       -11.8574    0.1307   58.5629 H       1  ZINC000883773972    0.1100
     15 C15       -12.3350   -1.6949   59.5924 C.3     1  ZINC000883773972   -0.1500
     16 C16       -13.0406   -2.2469   58.3571 C.3     1  ZINC000883773972   -0.1000
     17 C17       -14.5284   -1.8909   58.4018 C.3     1  ZINC000883773972   -0.5600
     18 H18       -14.9652   -2.2648   59.3278 H       1  ZINC000883773972    0.1400
     19 C19       -15.2425   -2.5245   57.2063 C.3     1  ZINC000883773972   -0.1400
     20 S20       -14.7065   -0.0843   58.3318 S.o2    1  ZINC000883773972    2.4200
     21 O21       -14.1292    0.3830   57.1203 O.2     1  ZINC000883773972   -0.9200
     22 O22       -16.0533    0.2519   58.6353 O.2     1  ZINC000883773972   -0.9300
     23 C23       -13.6502    0.4298   59.7178 C.3     1  ZINC000883773972   -0.6300
     24 C24        -9.6289    1.2788   62.7031 C.3     1  ZINC000883773972    0.1100
     25 C25        -8.5684    0.8777   63.7742 C.3     1  ZINC000883773972   -0.1100
     26 H26        -8.9427    0.1058   64.4466 H       1  ZINC000883773972    0.1000
     27 C27        -8.0999    2.1284   64.5309 C.3     1  ZINC000883773972    0.1100
     28 H28        -3.8118    2.9169   66.1564 H       1  ZINC000883773972    0.0900
     29 H29        -4.0313    1.4219   65.2157 H       1  ZINC000883773972    0.0900
     30 H30        -4.0073    2.9982   64.3891 H       1  ZINC000883773972    0.0900
     31 H31        -6.1516    2.1633   62.4602 H       1  ZINC000883773972    0.0800
     32 H32        -5.2827    0.9161   63.3997 H       1  ZINC000883773972    0.0900
     33 H33        -7.3273    1.4679   61.0475 H       1  ZINC000883773972    0.0700
     34 H34        -7.4096   -0.3113   60.9036 H       1  ZINC000883773972    0.0900
     35 H35       -11.7465    0.7274   61.3858 H       1  ZINC000883773972    0.4000
     36 H36       -11.3265   -2.1053   59.6434 H       1  ZINC000883773972    0.0900
     37 H37       -12.8879   -1.9903   60.4841 H       1  ZINC000883773972    0.0800
     38 H38       -12.5923   -1.8163   57.4618 H       1  ZINC000883773972    0.0900
     39 H39       -12.9286   -3.3308   58.3307 H       1  ZINC000883773972    0.0900
     40 H40       -15.1275   -3.6077   57.2467 H       1  ZINC000883773972    0.0800
     41 H41       -16.3019   -2.2701   57.2393 H       1  ZINC000883773972    0.0700
     42 H42       -14.8069   -2.1471   56.2811 H       1  ZINC000883773972    0.0800
     43 H43       -14.0803    0.0761   60.6549 H       1  ZINC000883773972    0.1400
     44 H44       -13.5764    1.5172   59.7364 H       1  ZINC000883773972    0.1400
     45 H45        -9.6477    2.3608   62.5729 H       1  ZINC000883773972    0.0800
     46 H46       -10.6121    0.9211   63.0087 H       1  ZINC000883773972    0.0800
     47 H47        -8.4827    2.1135   65.5513 H       1  ZINC000883773972    0.0900
     48 H48        -8.4405    3.0267   64.0160 H       1  ZINC000883773972    0.0700
@<TRIPOS>BOND
     1     1     2    1
     2     1    28    1
     3     1    29    1
     4     1    30    1
     5     2     3    2
     6     2     4   am
     7     4    27    1
     8     4     5    1
     9     5     6    1
    10     5    31    1
    11     5    32    1
    12     6     7    1
    13     6    25    1
    14     6     8    1
    15     8     9    1
    16     8    33    1
    17     8    34    1
    18     9    10   am
    19     9    24    1
    20    10    11    2
    21    10    12   am
    22    12    13    1
    23    12    35    1
    24    13    14    1
    25    13    23    1
    26    13    15    1
    27    15    16    1
    28    15    36    1
    29    15    37    1
    30    16    17    1
    31    16    38    1
    32    16    39    1
    33    17    18    1
    34    17    19    1
    35    17    20    1
    36    19    40    1
    37    19    41    1
    38    19    42    1
    39    20    21    2
    40    20    22    2
    41    20    23    1
    42    23    43    1
    43    23    44    1
    44    24    25    1
    45    24    45    1
    46    24    46    1
    47    25    26    1
    48    25    27    1
    49    27    47    1
    50    27    48    1
@<TRIPOS>SUBSTRUCTURE
     1 ZINC000883773972        1 TEMP              0 ****  ****    0 ROOT


##########                                Name:    ZINC000579444893
##########                DOCK_Rotatable_Bonds:                   8
##########                         Heavy_Atoms:                  26
##########                    Molecular_Weight:             365.494
##########                DOCK_Rotatable_Bonds:                   8
##########                       Formal_Charge:         -0.00999993
##########                     HBond_Acceptors:                   7
##########                        HBond_Donors:                   1
##########                         Heavy_Atoms:                  26
##########                          Grid_Score:          -25.098488
##########                     Grid_vdw_energy:          -23.459829
##########                      Grid_es_energy:           -1.638659
##########           Internal_energy_repulsive:           26.325991

@<TRIPOS>MOLECULE
ZINC000579444893
 58 60 1 0 0
SMALL
USER_CHARGES


@<TRIPOS>ATOM
      1 C1        -14.3590    4.1577   51.0837 C.3     1  ZINC000579444893   -0.1600
      2 C2        -12.9201    3.7132   51.3536 C.3     1  ZINC000579444893    0.1700
      3 H3        -12.5498    4.2065   52.2522 H       1  ZINC000579444893    0.0900
      4 N4        -12.8852    2.2611   51.5441 N.am    1  ZINC000579444893   -0.7400
      5 C5        -13.1854    1.7318   52.7467 C.2     1  ZINC000579444893    0.7100
      6 O6        -13.4837    2.4597   53.6739 O.2     1  ZINC000579444893   -0.5900
      7 N7        -13.1549    0.3958   52.9216 N.am    1  ZINC000579444893   -0.6300
      8 C8        -12.7938   -0.4811   51.8049 C.3     1  ZINC000579444893    0.0800
      9 C9        -13.4829   -0.1796   54.2283 C.3     1  ZINC000579444893    0.1100
     10 C10       -12.3251    0.0646   55.1982 C.3     1  ZINC000579444893    0.0600
     11 H11       -12.1895    1.1351   55.3515 H       1  ZINC000579444893    0.1000
     12 C12       -11.0284   -0.5534   54.6341 C.3     1  ZINC000579444893   -0.1600
     13 C13       -10.3356   -1.1266   55.8984 C.3     1  ZINC000579444893    0.0800
     14 H14        -9.7852   -0.3493   56.4284 H       1  ZINC000579444893    0.1000
     15 F15        -9.4955   -2.1955   55.5682 F       1  ZINC000579444893   -0.2000
     16 C16       -11.5506   -1.6106   56.7286 C.3     1  ZINC000579444893    0.0200
     17 N17       -12.6027   -0.5955   56.4872 N.3     1  ZINC000579444893   -0.5000
     18 C18       -13.9370   -1.2100   56.4871 C.3     1  ZINC000579444893    0.1000
     19 C19       -14.2374   -1.7588   57.8581 C.2     1  ZINC000579444893    0.0800
     20 C20       -13.7393   -1.2977   59.0287 C.2     1  ZINC000579444893   -0.2500
     21 C21       -14.2672   -2.0818   60.0597 C.2     1  ZINC000579444893    0.0400
     22 N22       -15.0541   -2.9814   59.5271 N.2     1  ZINC000579444893   -0.2900
     23 N23       -15.0558   -2.7944   58.1388 N.pl3   1  ZINC000579444893   -0.3700
     24 C24       -15.8064   -3.5888   57.1631 C.3     1  ZINC000579444893    0.0900
     25 C25       -12.0372    4.0927   50.1630 C.3     1  ZINC000579444893   -0.1000
     26 C26       -11.9522    5.6326   50.0202 C.3     1  ZINC000579444893   -0.1200
     27 C27       -10.6272    5.8311   49.2430 C.3     1  ZINC000579444893   -0.1300
     28 C28        -9.6825    4.7599   49.8258 C.3     1  ZINC000579444893   -0.1300
     29 C29       -10.5790    3.6545   50.4108 C.3     1  ZINC000579444893   -0.1200
     30 H30       -15.0047    3.8069   51.8887 H       1  ZINC000579444893    0.0600
     31 H31       -14.3996    5.2458   51.0333 H       1  ZINC000579444893    0.0700
     32 H32       -14.6977    3.7372   50.1368 H       1  ZINC000579444893    0.0500
     33 H33       -12.6461    1.6805   50.8048 H       1  ZINC000579444893    0.4000
     34 H34       -11.7087   -0.5650   51.7451 H       1  ZINC000579444893    0.0600
     35 H35       -13.2264   -1.4689   51.9640 H       1  ZINC000579444893    0.0800
     36 H36       -13.1776   -0.0618   50.8749 H       1  ZINC000579444893    0.0700
     37 H37       -14.3868    0.2905   54.6158 H       1  ZINC000579444893    0.0900
     38 H38       -13.6479   -1.2518   54.1222 H       1  ZINC000579444893    0.0900
     39 H39       -11.2574   -1.3494   53.9257 H       1  ZINC000579444893    0.1100
     40 H40       -10.4078    0.2119   54.1681 H       1  ZINC000579444893    0.0800
     41 H41       -11.8803   -2.5904   56.3831 H       1  ZINC000579444893    0.0600
     42 H42       -11.2961   -1.6467   57.7879 H       1  ZINC000579444893    0.0900
     43 H43       -14.6827   -0.4595   56.2247 H       1  ZINC000579444893    0.1100
     44 H44       -13.9641   -2.0196   55.7577 H       1  ZINC000579444893    0.0500
     45 H45       -13.0547   -0.4707   59.1462 H       1  ZINC000579444893    0.1500
     46 H46       -14.0605   -1.9652   61.1133 H       1  ZINC000579444893    0.1800
     47 H47       -16.7664   -3.1112   56.9673 H       1  ZINC000579444893    0.0800
     48 H48       -15.2383   -3.6562   56.2354 H       1  ZINC000579444893    0.0800
     49 H49       -15.9730   -4.5899   57.5608 H       1  ZINC000579444893    0.0900
     50 H50       -12.4201    3.6431   49.2467 H       1  ZINC000579444893    0.0800
     51 H51       -12.7970    6.0147   49.4474 H       1  ZINC000579444893    0.0700
     52 H52       -11.9008    6.1090   50.9992 H       1  ZINC000579444893    0.0700
     53 H53       -10.7816    5.6643   48.1770 H       1  ZINC000579444893    0.0700
     54 H54       -10.2271    6.8295   49.4198 H       1  ZINC000579444893    0.0700
     55 H55        -9.0509    4.3503   49.0375 H       1  ZINC000579444893    0.0600
     56 H56        -9.0648    5.1945   50.6118 H       1  ZINC000579444893    0.0600
     57 H57       -10.3965    3.5527   51.4805 H       1  ZINC000579444893    0.0600
     58 H58       -10.3825    2.7085   49.9064 H       1  ZINC000579444893    0.0600
@<TRIPOS>BOND
     1     1     2    1
     2     1    30    1
     3     1    31    1
     4     1    32    1
     5     2     3    1
     6     2     4    1
     7     2    25    1
     8     4     5   am
     9     4    33    1
    10     5     6    2
    11     5     7   am
    12     7     8    1
    13     7     9    1
    14     8    34    1
    15     8    35    1
    16     8    36    1
    17     9    10    1
    18     9    37    1
    19     9    38    1
    20    10    11    1
    21    10    17    1
    22    10    12    1
    23    12    13    1
    24    12    39    1
    25    12    40    1
    26    13    14    1
    27    13    15    1
    28    13    16    1
    29    16    17    1
    30    16    41    1
    31    16    42    1
    32    17    18    1
    33    18    19    1
    34    18    43    1
    35    18    44    1
    36    19    23    1
    37    19    20    2
    38    20    21    1
    39    20    45    1
    40    21    22    2
    41    21    46    1
    42    22    23    1
    43    23    24    1
    44    24    47    1
    45    24    48    1
    46    24    49    1
    47    25    29    1
    48    25    26    1
    49    25    50    1
    50    26    27    1
    51    26    51    1
    52    26    52    1
    53    27    28    1
    54    27    53    1
    55    27    54    1
    56    28    29    1
    57    28    55    1
    58    28    56    1
    59    29    57    1
    60    29    58    1
@<TRIPOS>SUBSTRUCTURE
     1 ZINC000579444893        1 TEMP              0 ****  ****    0 ROOT


##########                                Name:    ZINC000655982608
##########                DOCK_Rotatable_Bonds:                   5
##########                         Heavy_Atoms:                  29
##########                    Molecular_Weight:             388.469
##########                DOCK_Rotatable_Bonds:                   5
##########                       Formal_Charge:          -0.0200006
##########                     HBond_Acceptors:                   6
##########                        HBond_Donors:                   0
##########                         Heavy_Atoms:                  29
##########                          Grid_Score:          -25.050173
##########                     Grid_vdw_energy:          -24.233503
##########                      Grid_es_energy:           -0.816669
##########           Internal_energy_repulsive:           48.210995

@<TRIPOS>MOLECULE
ZINC000655982608
 53 57 1 0 0
SMALL
USER_CHARGES


@<TRIPOS>ATOM
      1 C1         -4.9092    5.1978   54.8668 C.3     1  ZINC000655982608   -0.1900
      2 C2         -4.7929    3.7304   55.2841 C.3     1  ZINC000655982608    0.0800
      3 H3         -4.2050    3.1877   54.5439 H       1  ZINC000655982608    0.1000
      4 C4         -4.1045    3.6410   56.6475 C.3     1  ZINC000655982608   -0.0300
      5 C5         -2.6534    3.2828   56.4550 C.2     1  ZINC000655982608    0.2000
      6 N6         -1.8750    2.6837   57.3238 N.2     1  ZINC000655982608   -0.4800
      7 C7         -0.6775    2.5738   56.7215 C.2     1  ZINC000655982608    0.1700
      8 C8          0.5629    1.9520   57.3095 C.3     1  ZINC000655982608   -0.0100
      9 H9          0.5986    0.8832   57.0988 H       1  ZINC000655982608    0.1300
     10 C10         1.8359    2.6610   56.7920 C.3     1  ZINC000655982608   -0.1400
     11 C11         2.7649    2.6737   57.9859 C.2     1  ZINC000655982608    0.5200
     12 O12         3.9583    2.8838   57.9354 O.2     1  ZINC000655982608   -0.5000
     13 N13         2.0750    2.4187   59.1112 N.am    1  ZINC000655982608   -0.5600
     14 C14         2.6439    2.3515   60.3877 C.ar    1  ZINC000655982608    0.1600
     15 C15         4.0066    2.5612   60.5542 C.ar    1  ZINC000655982608   -0.1600
     16 C16         4.5652    2.4941   61.8156 C.ar    1  ZINC000655982608   -0.0900
     17 C17         3.7691    2.2178   62.9120 C.ar    1  ZINC000655982608   -0.1400
     18 C18         2.4120    2.0080   62.7496 C.ar    1  ZINC000655982608   -0.0900
     19 C19         1.8462    2.0803   61.4917 C.ar    1  ZINC000655982608   -0.1600
     20 C20         0.6482    2.2191   58.8287 C.3     1  ZINC000655982608    0.1100
     21 N21        -0.7867    3.1018   55.5392 N.2     1  ZINC000655982608   -0.3700
     22 O22        -1.9155    3.5099   55.3641 O.3     1  ZINC000655982608    0.0900
     23 N23        -6.1346    3.1389   55.3732 N.3     1  ZINC000655982608   -0.4700
     24 C24        -6.9326    3.7923   56.4334 C.3     1  ZINC000655982608    0.0300
     25 C25        -8.3751    3.6797   55.8887 C.3     1  ZINC000655982608   -0.0800
     26 C26        -8.1634    3.5906   54.3905 C.ar    1  ZINC000655982608   -0.1400
     27 C27        -9.0311    3.7589   53.3325 C.ar    1  ZINC000655982608   -0.0800
     28 C28        -8.5746    3.6251   52.0333 C.ar    1  ZINC000655982608   -0.1400
     29 C29        -7.2463    3.3228   51.7976 C.ar    1  ZINC000655982608   -0.0900
     30 C30        -6.3743    3.1513   52.8528 C.ar    1  ZINC000655982608   -0.1400
     31 C31        -6.8271    3.2812   54.1644 C.ar    1  ZINC000655982608    0.1000
     32 H32        -3.9137    5.6060   54.6926 H       1  ZINC000655982608    0.0700
     33 H33        -5.4966    5.2698   53.9515 H       1  ZINC000655982608    0.0700
     34 H34        -5.4001    5.7630   55.6590 H       1  ZINC000655982608    0.0700
     35 H35        -4.1771    4.6029   57.1550 H       1  ZINC000655982608    0.1200
     36 H36        -4.5910    2.8743   57.2505 H       1  ZINC000655982608    0.1100
     37 H37         2.2786    2.0981   55.9702 H       1  ZINC000655982608    0.1200
     38 H38         1.6047    3.6787   56.4777 H       1  ZINC000655982608    0.1200
     39 H39         4.6289    2.7762   59.6982 H       1  ZINC000655982608    0.1200
     40 H40         5.6248    2.6571   61.9457 H       1  ZINC000655982608    0.1300
     41 H41         4.2084    2.1656   63.8972 H       1  ZINC000655982608    0.1200
     42 H42         1.7931    1.7919   63.6078 H       1  ZINC000655982608    0.1300
     43 H43         0.7862    1.9163   61.3655 H       1  ZINC000655982608    0.1500
     44 H44         0.0838    3.1153   59.0859 H       1  ZINC000655982608    0.0900
     45 H45         0.2700    1.3616   59.3853 H       1  ZINC000655982608    0.1000
     46 H46        -6.8330    3.2571   57.3777 H       1  ZINC000655982608    0.1000
     47 H47        -6.6428    4.8368   56.5473 H       1  ZINC000655982608    0.0700
     48 H48        -8.8603    2.7788   56.2643 H       1  ZINC000655982608    0.0900
     49 H49        -8.9546    4.5667   56.1446 H       1  ZINC000655982608    0.0800
     50 H50       -10.0685    3.9949   53.5180 H       1  ZINC000655982608    0.1200
     51 H51        -9.2549    3.7563   51.2047 H       1  ZINC000655982608    0.1200
     52 H52        -6.8899    3.2201   50.7833 H       1  ZINC000655982608    0.1300
     53 H53        -5.3380    2.9149   52.6620 H       1  ZINC000655982608    0.1200
@<TRIPOS>BOND
     1     1     2    1
     2     1    32    1
     3     1    33    1
     4     1    34    1
     5     2     3    1
     6     2     4    1
     7     2    23    1
     8     4     5    1
     9     4    35    1
    10     4    36    1
    11     5    22    1
    12     5     6    2
    13     6     7    1
    14     7     8    1
    15     7    21    2
    16     8     9    1
    17     8    20    1
    18     8    10    1
    19    10    11    1
    20    10    37    1
    21    10    38    1
    22    11    12    2
    23    11    13   am
    24    13    14    1
    25    13    20    1
    26    14    19   ar
    27    14    15   ar
    28    15    16   ar
    29    15    39    1
    30    16    17   ar
    31    16    40    1
    32    17    18   ar
    33    17    41    1
    34    18    19   ar
    35    18    42    1
    36    19    43    1
    37    20    44    1
    38    20    45    1
    39    21    22    1
    40    23    31    1
    41    23    24    1
    42    24    25    1
    43    24    46    1
    44    24    47    1
    45    25    26    1
    46    25    48    1
    47    25    49    1
    48    26    31   ar
    49    26    27   ar
    50    27    28   ar
    51    27    50    1
    52    28    29   ar
    53    28    51    1
    54    29    30   ar
    55    29    52    1
    56    30    31   ar
    57    30    53    1
@<TRIPOS>SUBSTRUCTURE
     1 ZINC000655982608        1 TEMP              0 ****  ****    0 ROOT


##########                                Name:    ZINC000506388363
##########                DOCK_Rotatable_Bonds:                   5
##########                         Heavy_Atoms:                  29
##########                    Molecular_Weight:             416.858
##########                DOCK_Rotatable_Bonds:                   5
##########                       Formal_Charge:         7.07805e-07
##########                     HBond_Acceptors:                   8
##########                        HBond_Donors:                   1
##########                         Heavy_Atoms:                  29
##########                          Grid_Score:          -25.036819
##########                     Grid_vdw_energy:          -24.659920
##########                      Grid_es_energy:           -0.376900
##########           Internal_energy_repulsive:           10.322134

@<TRIPOS>MOLECULE
ZINC000506388363
 48 51 1 0 0
SMALL
USER_CHARGES


@<TRIPOS>ATOM
      1 O1        -10.2325    1.8667   59.4373 O.2     1  ZINC000506388363   -0.5300
      2 C2        -10.5609    1.2981   58.4144 C.2     1  ZINC000506388363    0.5600
      3 C3        -11.4264    0.1011   58.4793 C.ar    1  ZINC000506388363   -0.1200
      4 C4        -10.9491   -1.0784   59.0525 C.ar    1  ZINC000506388363   -0.0900
      5 C5        -11.7616   -2.1922   59.1106 C.ar    1  ZINC000506388363   -0.1100
      6 C6        -13.0468   -2.1421   58.6018 C.ar    1  ZINC000506388363   -0.0900
      7 C7        -13.5271   -0.9751   58.0315 C.ar    1  ZINC000506388363   -0.0400
      8 Cl8       -15.1417   -0.9220   57.3961 Cl      1  ZINC000506388363   -0.0600
      9 C9        -12.7261    0.1478   57.9725 C.ar    1  ZINC000506388363   -0.0600
     10 N10       -10.1406    1.7620   57.2208 N.am    1  ZINC000506388363   -0.6100
     11 C11        -9.2742    2.9474   57.1343 C.3     1  ZINC000506388363    0.1000
     12 C12        -8.0625    2.6021   56.2620 C.3     1  ZINC000506388363    0.0400
     13 N13        -8.5265    2.0761   54.9712 N.3     1  ZINC000506388363   -0.5300
     14 C14        -7.4030    1.8942   54.0424 C.3     1  ZINC000506388363    0.1200
     15 C15        -7.6318    2.7277   52.8079 C.2     1  ZINC000506388363   -0.2100
     16 C16        -8.8317    3.0626   52.2853 C.2     1  ZINC000506388363    0.0600
     17 N17        -8.6120    3.8127   51.1842 N.pl3   1  ZINC000506388363   -0.4700
     18 N18        -7.2279    3.9480   51.0176 N.2     1  ZINC000506388363   -0.2700
     19 C19        -6.6327    3.3010   51.9971 C.2     1  ZINC000506388363    0.1300
     20 C20        -5.1678    3.1865   52.2047 C.ar    1  ZINC000506388363   -0.0700
     21 C21        -4.5442    3.9185   53.2154 C.ar    1  ZINC000506388363    0.1500
     22 F22        -5.2727    4.7337   54.0090 F       1  ZINC000506388363   -0.1200
     23 C23        -3.1789    3.8073   53.4033 C.ar    1  ZINC000506388363   -0.1600
     24 C24        -2.4318    2.9730   52.5922 C.ar    1  ZINC000506388363   -0.0500
     25 C25        -3.0439    2.2447   51.5884 C.ar    1  ZINC000506388363   -0.1600
     26 C26        -4.4092    2.3423   51.3936 C.ar    1  ZINC000506388363    0.1600
     27 F27        -5.0058    1.6302   50.4126 F       1  ZINC000506388363   -0.1200
     28 C28        -9.2748    0.8238   55.1439 C.3     1  ZINC000506388363    0.0400
     29 C29       -10.5311    1.0926   55.9708 C.3     1  ZINC000506388363    0.1200
     30 H30        -9.9456   -1.1194   59.4496 H       1  ZINC000506388363    0.1400
     31 H31       -11.3928   -3.1053   59.5541 H       1  ZINC000506388363    0.1400
     32 H32       -13.6782   -3.0170   58.6492 H       1  ZINC000506388363    0.1400
     33 H33       -13.1014    1.0577   57.5280 H       1  ZINC000506388363    0.1400
     34 H34        -9.8263    3.7723   56.6840 H       1  ZINC000506388363    0.0800
     35 H35        -8.9385    3.2292   58.1322 H       1  ZINC000506388363    0.1000
     36 H36        -7.4663    3.4993   56.0960 H       1  ZINC000506388363    0.0900
     37 H37        -7.4554    1.8491   56.7644 H       1  ZINC000506388363    0.0400
     38 H38        -6.4776    2.2073   54.5258 H       1  ZINC000506388363    0.1000
     39 H39        -7.3293    0.8433   53.7627 H       1  ZINC000506388363    0.0400
     40 H40        -9.7969    2.7799   52.6788 H       1  ZINC000506388363    0.1800
     41 H41        -9.2944    4.1918   50.6083 H       1  ZINC000506388363    0.4400
     42 H42        -2.6948    4.3737   54.1852 H       1  ZINC000506388363    0.1500
     43 H43        -1.3656    2.8899   52.7429 H       1  ZINC000506388363    0.1500
     44 H44        -2.4547    1.5951   50.9582 H       1  ZINC000506388363    0.1500
     45 H45        -9.5576    0.4315   54.1671 H       1  ZINC000506388363    0.0900
     46 H46        -8.6507    0.0957   55.6620 H       1  ZINC000506388363    0.0400
     47 H47       -11.0284    0.1498   56.1983 H       1  ZINC000506388363    0.1000
     48 H48       -11.2062    1.7402   55.4111 H       1  ZINC000506388363    0.0800
@<TRIPOS>BOND
     1     1     2    2
     2     2     3    1
     3     2    10   am
     4     3     9   ar
     5     3     4   ar
     6     4     5   ar
     7     4    30    1
     8     5     6   ar
     9     5    31    1
    10     6     7   ar
    11     6    32    1
    12     7     8    1
    13     7     9   ar
    14     9    33    1
    15    10    29    1
    16    10    11    1
    17    11    12    1
    18    11    34    1
    19    11    35    1
    20    12    13    1
    21    12    36    1
    22    12    37    1
    23    13    14    1
    24    13    28    1
    25    14    15    1
    26    14    38    1
    27    14    39    1
    28    15    19    1
    29    15    16    2
    30    16    17    1
    31    16    40    1
    32    17    18    1
    33    17    41    1
    34    18    19    2
    35    19    20    1
    36    20    26   ar
    37    20    21   ar
    38    21    22    1
    39    21    23   ar
    40    23    24   ar
    41    23    42    1
    42    24    25   ar
    43    24    43    1
    44    25    26   ar
    45    25    44    1
    46    26    27    1
    47    28    29    1
    48    28    45    1
    49    28    46    1
    50    29    47    1
    51    29    48    1
@<TRIPOS>SUBSTRUCTURE
     1 ZINC000506388363        1 TEMP              0 ****  ****    0 ROOT


##########                                Name:    ZINC000013551438
##########                DOCK_Rotatable_Bonds:                   5
##########                         Heavy_Atoms:                  27
##########                    Molecular_Weight:             377.467
##########                DOCK_Rotatable_Bonds:                   5
##########                       Formal_Charge:          -0.0300005
##########                     HBond_Acceptors:                   6
##########                        HBond_Donors:                   1
##########                         Heavy_Atoms:                  27
##########                          Grid_Score:          -24.983095
##########                     Grid_vdw_energy:          -24.584038
##########                      Grid_es_energy:           -0.399058
##########           Internal_energy_repulsive:           10.048520

@<TRIPOS>MOLECULE
ZINC000013551438
 46 49 1 0 0
SMALL
USER_CHARGES


@<TRIPOS>ATOM
      1 C1         -9.7374   -1.5208   53.7026 C.3     1  <0>         0.0300
      2 O2         -9.3168   -0.3234   54.3593 O.3     1  <0>        -0.3200
      3 C3         -9.4287   -0.2904   55.7142 C.ar    1  <0>         0.1000
      4 C4        -10.2595   -1.1989   56.3639 C.ar    1  <0>        -0.1800
      5 C5        -10.3838   -1.1787   57.7353 C.ar    1  <0>        -0.0900
      6 C6         -9.6755   -0.2446   58.4842 C.ar    1  <0>         0.0700
      7 C7         -8.8359    0.6730   57.8302 C.ar    1  <0>        -0.0400
      8 C8         -8.7130    0.6407   56.4415 C.ar    1  <0>        -0.1100
      9 C9         -8.2436    1.5083   58.8870 C.2     1  <0>        -0.1200
     10 C10        -7.2856    2.6255   58.6993 C.2     1  <0>         0.1700
     11 C11        -7.5732    3.8990   59.0279 C.2     1  <0>        -0.3000
     12 S12        -6.1694    4.8913   58.6439 S.3     1  <0>         0.2500
     13 C13        -5.3305    3.5128   58.0809 C.2     1  <0>         0.2400
     14 N14        -4.0374    3.5241   57.5752 N.am    1  <0>        -0.6200
     15 C15        -3.8349    3.5743   56.2438 C.2     1  <0>         0.5600
     16 O16        -4.7844    3.6111   55.4855 O.2     1  <0>        -0.5000
     17 C17        -2.4585    3.5846   55.7054 C.ar    1  <0>        -0.1400
     18 C18        -2.2384    3.8267   54.3484 C.ar    1  <0>        -0.0800
     19 C19        -0.9511    3.8355   53.8524 C.ar    1  <0>        -0.1300
     20 C20         0.1204    3.6049   54.6968 C.ar    1  <0>        -0.0800
     21 C21        -0.0908    3.3637   56.0428 C.ar    1  <0>        -0.1300
     22 C22        -1.3726    3.3579   56.5528 C.ar    1  <0>        -0.0500
     23 N23        -6.0687    2.4554   58.1984 N.2     1  <0>        -0.5000
     24 C24        -8.7423    1.0608   60.0639 C.2     1  <0>         0.1300
     25 C25        -8.4074    1.6281   61.4193 C.3     1  <0>        -0.0900
     26 N26        -9.5965    0.0169   59.8366 N.pl3   1  <0>        -0.4800
     27 C27       -10.3221   -0.7159   60.8772 C.3     1  <0>         0.0800
     28 H28       -10.7916   -1.7000   53.9138 H       1  <0>         0.0500
     29 H29        -9.5953   -1.4144   52.6271 H       1  <0>         0.1000
     30 H30        -9.1460   -2.3613   54.0658 H       1  <0>         0.0500
     31 H31       -10.8120   -1.9260   55.7871 H       1  <0>         0.1300
     32 H32       -11.0315   -1.8878   58.2293 H       1  <0>         0.1200
     33 H33        -8.0683    1.3451   55.9368 H       1  <0>         0.1300
     34 H34        -8.5019    4.2506   59.4524 H       1  <0>         0.1800
     35 H35        -3.2797    3.4960   58.1803 H       1  <0>         0.4200
     36 H36        -3.0739    4.0065   53.6881 H       1  <0>         0.1300
     37 H37        -0.7794    4.0223   52.8026 H       1  <0>         0.1300
     38 H38         1.1262    3.6128   54.3035 H       1  <0>         0.1300
     39 H39         0.7500    3.1841   56.6965 H       1  <0>         0.1300
     40 H40        -1.5361    3.1699   57.6037 H       1  <0>         0.1400
     41 H41        -9.1631    2.3604   61.7035 H       1  <0>         0.0800
     42 H42        -8.3863    0.8238   62.1546 H       1  <0>         0.0700
     43 H43        -7.4307    2.1103   61.3802 H       1  <0>         0.0800
     44 H44       -11.2860   -0.2383   61.0528 H       1  <0>         0.0700
     45 H45       -10.4800   -1.7449   60.5540 H       1  <0>         0.0800
     46 H46        -9.7402   -0.7097   61.7988 H       1  <0>         0.0800
@<TRIPOS>BOND
     1     1     2    1
     2     1    28    1
     3     1    29    1
     4     1    30    1
     5     2     3    1
     6     3     8   ar
     7     3     4   ar
     8     4     5   ar
     9     4    31    1
    10     5     6   ar
    11     5    32    1
    12     6    26    1
    13     6     7   ar
    14     7     8   ar
    15     7     9    1
    16     8    33    1
    17     9    10    1
    18     9    24    2
    19    10    23    1
    20    10    11    2
    21    11    12    1
    22    11    34    1
    23    12    13    1
    24    13    14    1
    25    13    23    2
    26    14    15   am
    27    14    35    1
    28    15    16    2
    29    15    17    1
    30    17    22   ar
    31    17    18   ar
    32    18    19   ar
    33    18    36    1
    34    19    20   ar
    35    19    37    1
    36    20    21   ar
    37    20    38    1
    38    21    22   ar
    39    21    39    1
    40    22    40    1
    41    24    25    1
    42    24    26    1
    43    25    41    1
    44    25    42    1
    45    25    43    1
    46    26    27    1
    47    27    44    1
    48    27    45    1
    49    27    46    1
@<TRIPOS>SUBSTRUCTURE
     1 <0>         1 TEMP              0 ****  ****    0 ROOT


##########                                Name:    ZINC000588570917
##########                DOCK_Rotatable_Bonds:                   7
##########                         Heavy_Atoms:                  25
##########                    Molecular_Weight:             366.481
##########                DOCK_Rotatable_Bonds:                   7
##########                       Formal_Charge:          -0.0100006
##########                     HBond_Acceptors:                   7
##########                        HBond_Donors:                   1
##########                         Heavy_Atoms:                  25
##########                          Grid_Score:          -24.929823
##########                     Grid_vdw_energy:          -24.589682
##########                      Grid_es_energy:           -0.340142
##########           Internal_energy_repulsive:           14.936867

@<TRIPOS>MOLECULE
ZINC000588570917
 51 52 1 0 0
SMALL
USER_CHARGES


@<TRIPOS>ATOM
      1 C1         -9.5449    3.6341   51.5848 C.3     1  ZINC000588570917   -0.1300
      2 C2         -8.0626    3.9052   51.5859 C.2     1  ZINC000588570917   -0.0500
      3 C3         -7.2540    3.1785   52.3523 C.2     1  ZINC000588570917   -0.2000
      4 C4         -5.7714    3.4484   52.3521 C.3     1  ZINC000588570917   -0.0900
      5 C5         -5.2202    3.2688   53.7680 C.3     1  ZINC000588570917   -0.1500
      6 C6         -7.8070    2.1115   53.2000 C.2     1  ZINC000588570917    0.5600
      7 O7         -7.4242    0.9653   53.0619 O.2     1  ZINC000588570917   -0.5100
      8 N8         -8.7379    2.4036   54.1297 N.am    1  ZINC000588570917   -0.6800
      9 C9         -9.2637    1.3891   54.9356 C.ar    1  ZINC000588570917    0.2100
     10 C10        -8.9607    1.3491   56.2905 C.ar    1  ZINC000588570917   -0.1700
     11 C11        -9.4822    0.3460   57.0838 C.ar    1  ZINC000588570917    0.0000
     12 C12       -10.3051   -0.6178   56.5306 C.ar    1  ZINC000588570917   -0.7000
     13 S13       -10.9683   -1.8958   57.5463 S.o2    1  ZINC000588570917    2.6900
     14 O14       -10.7288   -3.1176   56.8614 O.2     1  ZINC000588570917   -0.9500
     15 O15       -10.5058   -1.6406   58.8654 O.2     1  ZINC000588570917   -0.9500
     16 N16       -12.6115   -1.6927   57.5794 N.am    1  ZINC000588570917   -1.0000
     17 C17       -13.5153   -2.7508   57.1011 C.3     1  ZINC000588570917    0.0900
     18 C18       -14.5745   -3.0059   58.1796 C.3     1  ZINC000588570917    0.0700
     19 H19       -14.1021   -3.4493   59.0561 H       1  ZINC000588570917    0.0700
     20 C20       -15.6387   -3.9607   57.6349 C.3     1  ZINC000588570917   -0.1500
     21 O21       -15.1852   -1.7654   58.5423 O.3     1  ZINC000588570917   -0.3700
     22 C22       -14.2848   -0.8163   59.1189 C.3     1  ZINC000588570917    0.0800
     23 H23       -14.8352    0.0796   59.4063 H       1  ZINC000588570917    0.1200
     24 C24       -13.6212   -1.4270   60.3549 C.3     1  ZINC000588570917   -0.1900
     25 C25       -13.2110   -0.4513   58.0938 C.3     1  ZINC000588570917    0.0900
     26 C26       -10.6092   -0.5805   55.1821 C.ar    1  ZINC000588570917    0.0000
     27 C27       -10.0950    0.4226   54.3842 C.ar    1  ZINC000588570917   -0.1400
     28 H28       -10.0400    4.3238   50.9012 H       1  ZINC000588570917    0.0600
     29 H29        -9.7265    2.6091   51.2614 H       1  ZINC000588570917    0.0800
     30 H30        -9.9406    3.7731   52.5909 H       1  ZINC000588570917    0.0800
     31 H31        -7.6567    4.6898   50.9644 H       1  ZINC000588570917    0.1300
     32 H32        -5.2751    2.7507   51.6777 H       1  ZINC000588570917    0.0700
     33 H33        -5.5881    4.4696   52.0177 H       1  ZINC000588570917    0.0800
     34 H34        -5.4035    2.2477   54.1024 H       1  ZINC000588570917    0.0500
     35 H35        -4.1478    3.4641   53.7679 H       1  ZINC000588570917    0.0600
     36 H36        -5.7165    3.9666   54.4424 H       1  ZINC000588570917    0.0600
     37 H37        -9.0432    3.3177   54.2398 H       1  ZINC000588570917    0.4100
     38 H38        -8.3177    2.1013   56.7231 H       1  ZINC000588570917    0.1400
     39 H39        -9.2466    0.3141   58.1374 H       1  ZINC000588570917    0.1400
     40 H40       -14.0002   -2.4303   56.1790 H       1  ZINC000588570917    0.0900
     41 H41       -12.9483   -3.6640   56.9202 H       1  ZINC000588570917    0.1000
     42 H42       -15.1710   -4.9047   57.3550 H       1  ZINC000588570917    0.0700
     43 H43       -16.3915   -4.1417   58.4022 H       1  ZINC000588570917    0.0700
     44 H44       -16.1120   -3.5160   56.7594 H       1  ZINC000588570917    0.0700
     45 H45       -13.0696   -2.3217   60.0664 H       1  ZINC000588570917    0.0600
     46 H46       -12.9349   -0.7028   60.7939 H       1  ZINC000588570917    0.0700
     47 H47       -14.3863   -1.6913   61.0848 H       1  ZINC000588570917    0.0700
     48 H48       -12.4432    0.1599   58.5683 H       1  ZINC000588570917    0.1000
     49 H49       -13.6629    0.1007   57.2696 H       1  ZINC000588570917    0.0900
     50 H50       -11.2522   -1.3348   54.7531 H       1  ZINC000588570917    0.1400
     51 H51       -10.3331    0.4513   53.3312 H       1  ZINC000588570917    0.1500
@<TRIPOS>BOND
     1     1     2    1
     2     1    28    1
     3     1    29    1
     4     1    30    1
     5     2     3    2
     6     2    31    1
     7     3     4    1
     8     3     6    1
     9     4     5    1
    10     4    32    1
    11     4    33    1
    12     5    34    1
    13     5    35    1
    14     5    36    1
    15     6     7    2
    16     6     8   am
    17     8     9    1
    18     8    37    1
    19     9    27   ar
    20     9    10   ar
    21    10    11   ar
    22    10    38    1
    23    11    12   ar
    24    11    39    1
    25    12    13    1
    26    12    26   ar
    27    13    14    2
    28    13    15    2
    29    13    16   am
    30    16    25    1
    31    16    17    1
    32    17    18    1
    33    17    40    1
    34    17    41    1
    35    18    19    1
    36    18    20    1
    37    18    21    1
    38    20    42    1
    39    20    43    1
    40    20    44    1
    41    21    22    1
    42    22    23    1
    43    22    24    1
    44    22    25    1
    45    24    45    1
    46    24    46    1
    47    24    47    1
    48    25    48    1
    49    25    49    1
    50    26    27   ar
    51    26    50    1
    52    27    51    1
@<TRIPOS>SUBSTRUCTURE
     1 ZINC000588570917        1 TEMP              0 ****  ****    0 ROOT


##########                                Name:    ZINC000437443367
##########                DOCK_Rotatable_Bonds:                   8
##########                         Heavy_Atoms:                  24
##########                    Molecular_Weight:             334.434
##########                DOCK_Rotatable_Bonds:                   8
##########                       Formal_Charge:          -0.0500003
##########                     HBond_Acceptors:                   5
##########                        HBond_Donors:                   1
##########                         Heavy_Atoms:                  24
##########                          Grid_Score:          -24.909657
##########                     Grid_vdw_energy:          -24.046598
##########                      Grid_es_energy:           -0.863059
##########           Internal_energy_repulsive:           27.535305

@<TRIPOS>MOLECULE
ZINC000437443367
 51 52 1 0 0
SMALL
USER_CHARGES


@<TRIPOS>ATOM
      1 C1        -15.0676   -2.8568   59.0790 C.3     1  ZINC000437443367   -0.1200
      2 C2        -13.8476   -2.1093   58.6060 C.ar    1  ZINC000437443367   -0.1000
      3 C3        -12.7962   -1.8861   59.4725 C.ar    1  ZINC000437443367   -0.1200
      4 C4        -11.6717   -1.1968   59.0358 C.ar    1  ZINC000437443367    0.1400
      5 N5        -10.6056   -0.9701   59.9114 N.am    1  ZINC000437443367   -0.6400
      6 C6        -10.6770    0.0261   60.8164 C.2     1  ZINC000437443367    0.5000
      7 O7        -11.6669    0.7264   60.8714 O.2     1  ZINC000437443367   -0.4800
      8 C8         -9.5381    0.2682   61.7517 C.2     1  ZINC000437443367    0.5100
      9 O9         -9.5489   -0.2236   62.8611 O.2     1  ZINC000437443367   -0.5200
     10 N10        -8.4983    1.0330   61.3636 N.am    1  ZINC000437443367   -0.5700
     11 C11        -7.3811    1.2706   62.2810 C.3     1  ZINC000437443367    0.0900
     12 C12        -7.7973    2.2974   63.3363 C.3     1  ZINC000437443367   -0.1200
     13 C13        -7.0723    2.0004   64.6505 C.3     1  ZINC000437443367   -0.0900
     14 C14        -7.6993    0.7718   65.3125 C.3     1  ZINC000437443367   -0.1400
     15 C15        -5.5936    1.7282   64.3669 C.3     1  ZINC000437443367   -0.1500
     16 C16        -8.4855    1.6266   60.0243 C.3     1  ZINC000437443367    0.1300
     17 C17        -8.5148    3.1656   60.1282 C.3     1  ZINC000437443367   -0.1300
     18 C18        -7.0259    3.5812   60.0318 C.3     1  ZINC000437443367   -0.1300
     19 C19        -6.4610    2.5888   58.9853 C.3     1  ZINC000437443367   -0.1200
     20 C20        -7.1796    1.2599   59.2977 C.3     1  ZINC000437443367   -0.1400
     21 C21       -11.6081   -0.7338   57.7279 C.ar    1  ZINC000437443367   -0.1100
     22 C22       -12.6622   -0.9593   56.8645 C.ar    1  ZINC000437443367   -0.1300
     23 C23       -13.7796   -1.6515   57.3004 C.ar    1  ZINC000437443367    0.0800
     24 F24       -14.8096   -1.8710   56.4542 F       1  ZINC000437443367   -0.1400
     25 H25       -14.9302   -3.9240   58.9046 H       1  ZINC000437443367    0.0800
     26 H26       -15.2124   -2.6786   60.1445 H       1  ZINC000437443367    0.0700
     27 H27       -15.9426   -2.5088   58.5301 H       1  ZINC000437443367    0.0700
     28 H28       -12.8479   -2.2468   60.4892 H       1  ZINC000437443367    0.1400
     29 H29        -9.8146   -1.5298   59.8676 H       1  ZINC000437443367    0.4200
     30 H30        -7.1083    0.3361   62.7710 H       1  ZINC000437443367    0.0900
     31 H31        -6.5262    1.6507   61.7216 H       1  ZINC000437443367    0.1000
     32 H32        -7.5334    3.2979   62.9937 H       1  ZINC000437443367    0.0700
     33 H33        -8.8742    2.2397   63.4944 H       1  ZINC000437443367    0.0600
     34 H34        -7.1626    2.8582   65.3170 H       1  ZINC000437443367    0.0600
     35 H35        -7.6090   -0.0858   64.6459 H       1  ZINC000437443367    0.0600
     36 H36        -7.1828    0.5603   66.2487 H       1  ZINC000437443367    0.0400
     37 H37        -8.7527    0.9658   65.5145 H       1  ZINC000437443367    0.0600
     38 H38        -5.1470    2.6035   63.8953 H       1  ZINC000437443367    0.0500
     39 H39        -5.0771    1.5167   65.3032 H       1  ZINC000437443367    0.0500
     40 H40        -5.5034    0.8706   63.7004 H       1  ZINC000437443367    0.0500
     41 H41        -9.3433    1.2740   59.4516 H       1  ZINC000437443367    0.1000
     42 H42        -9.0843    3.5928   59.3029 H       1  ZINC000437443367    0.0800
     43 H43        -8.9362    3.4754   61.0845 H       1  ZINC000437443367    0.0700
     44 H44        -6.9336    4.6084   59.6791 H       1  ZINC000437443367    0.0700
     45 H45        -6.5267    3.4551   60.9926 H       1  ZINC000437443367    0.0700
     46 H46        -6.6989    2.9228   57.9755 H       1  ZINC000437443367    0.0700
     47 H47        -5.3836    2.4777   59.1076 H       1  ZINC000437443367    0.0700
     48 H48        -6.5554    0.6402   59.9415 H       1  ZINC000437443367    0.0800
     49 H49        -7.4037    0.7300   58.3719 H       1  ZINC000437443367    0.0700
     50 H50       -10.7351   -0.1975   57.3863 H       1  ZINC000437443367    0.1600
     51 H51       -12.6132   -0.5995   55.8473 H       1  ZINC000437443367    0.1400
@<TRIPOS>BOND
     1     1     2    1
     2     1    25    1
     3     1    26    1
     4     1    27    1
     5     2    23   ar
     6     2     3   ar
     7     3     4   ar
     8     3    28    1
     9     4     5    1
    10     4    21   ar
    11     5     6   am
    12     5    29    1
    13     6     7    2
    14     6     8    1
    15     8     9    2
    16     8    10   am
    17    10    11    1
    18    10    16    1
    19    11    12    1
    20    11    30    1
    21    11    31    1
    22    12    13    1
    23    12    32    1
    24    12    33    1
    25    13    14    1
    26    13    15    1
    27    13    34    1
    28    14    35    1
    29    14    36    1
    30    14    37    1
    31    15    38    1
    32    15    39    1
    33    15    40    1
    34    16    20    1
    35    16    17    1
    36    16    41    1
    37    17    18    1
    38    17    42    1
    39    17    43    1
    40    18    19    1
    41    18    44    1
    42    18    45    1
    43    19    20    1
    44    19    46    1
    45    19    47    1
    46    20    48    1
    47    20    49    1
    48    21    22   ar
    49    21    50    1
    50    22    23   ar
    51    22    51    1
    52    23    24    1
@<TRIPOS>SUBSTRUCTURE
     1 ZINC000437443367        1 TEMP              0 ****  ****    0 ROOT


##########                                Name:    ZINC000002634904
##########                DOCK_Rotatable_Bonds:                   7
##########                         Heavy_Atoms:                  31
##########                    Molecular_Weight:             423.498
##########                DOCK_Rotatable_Bonds:                   7
##########                       Formal_Charge:        -7.45058e-08
##########                     HBond_Acceptors:                   7
##########                        HBond_Donors:                   1
##########                         Heavy_Atoms:                  31
##########                          Grid_Score:          -24.905920
##########                     Grid_vdw_energy:          -23.378250
##########                      Grid_es_energy:           -1.527669
##########           Internal_energy_repulsive:          170.747177

@<TRIPOS>MOLECULE
ZINC000002634904
 48 51 1 0 0
SMALL
USER_CHARGES


@<TRIPOS>ATOM
      1 N1        -15.3547    5.2259   62.4815 N.1     1  ZINC000002634904   -0.4100
      2 C2        -15.3091    4.2276   61.9413 C.1     1  ZINC000002634904    0.2500
      3 C3        -15.2518    2.9691   61.2605 C.ar    1  ZINC000002634904   -0.0400
      4 C4        -16.0855    2.7265   60.1651 C.ar    1  ZINC000002634904   -0.0500
      5 C5        -16.0277    1.5152   59.5129 C.ar    1  ZINC000002634904   -0.1400
      6 C6        -15.1409    0.5336   59.9429 C.ar    1  ZINC000002634904    0.1700
      7 N7        -15.0849   -0.6928   59.2794 N.am    1  ZINC000002634904   -0.6700
      8 C8        -15.8887   -0.9245   58.2227 C.2     1  ZINC000002634904    0.5400
      9 O9        -16.6608   -0.0673   57.8485 O.2     1  ZINC000002634904   -0.5000
     10 C10       -15.8283   -2.2489   57.5062 C.3     1  ZINC000002634904   -0.1700
     11 S11       -14.4059   -3.1946   58.1050 S.3     1  ZINC000002634904    0.1300
     12 C12       -13.1190   -2.4362   57.1706 C.ar    1  ZINC000002634904    0.2100
     13 N13       -11.8520   -2.7100   57.4608 N.ar    1  ZINC000002634904   -0.2900
     14 N14       -10.8797   -2.1796   56.8053 N.ar    1  ZINC000002634904   -0.1600
     15 C15       -11.1212   -1.3340   55.8092 C.ar    1  ZINC000002634904    0.0600
     16 C16       -10.0031   -0.7227   55.0532 C.ar    1  ZINC000002634904   -0.0500
     17 C17        -9.4310    0.4707   55.4924 C.ar    1  ZINC000002634904   -0.0800
     18 C18        -8.3899    1.0352   54.7841 C.ar    1  ZINC000002634904   -0.1200
     19 C19        -7.9142    0.4198   53.6401 C.ar    1  ZINC000002634904   -0.1000
     20 C20        -8.4778   -0.7641   53.1994 C.ar    1  ZINC000002634904   -0.1200
     21 C21        -9.5151   -1.3415   53.9028 C.ar    1  ZINC000002634904   -0.0800
     22 C22       -12.4577   -1.0281   55.4829 C.ar    1  ZINC000002634904    0.2300
     23 C23       -12.7726   -0.0905   54.3798 C.ar    1  ZINC000002634904   -0.0700
     24 C24       -12.6887   -0.5155   53.0543 C.ar    1  ZINC000002634904   -0.0700
     25 C25       -12.9836    0.3622   52.0312 C.ar    1  ZINC000002634904   -0.1200
     26 C26       -13.3620    1.6615   52.3184 C.ar    1  ZINC000002634904   -0.0900
     27 C27       -13.4466    2.0892   53.6313 C.ar    1  ZINC000002634904   -0.1200
     28 C28       -13.1598    1.2189   54.6631 C.ar    1  ZINC000002634904   -0.0700
     29 N29       -13.4308   -1.6046   56.1845 N.ar    1  ZINC000002634904   -0.4400
     30 C30       -14.3093    0.7716   61.0323 C.ar    1  ZINC000002634904   -0.1200
     31 C31       -14.3579    1.9824   61.6861 C.ar    1  ZINC000002634904   -0.0500
     32 H32       -16.7746    3.4882   59.8311 H       1  ZINC000002634904    0.1400
     33 H33       -16.6718    1.3270   58.6667 H       1  ZINC000002634904    0.1400
     34 H34       -14.4674   -1.3783   59.5786 H       1  ZINC000002634904    0.4200
     35 H35       -16.7438   -2.8084   57.6990 H       1  ZINC000002634904    0.1300
     36 H36       -15.7259   -2.0780   56.4346 H       1  ZINC000002634904    0.1300
     37 H37        -9.8020    0.9523   56.3850 H       1  ZINC000002634904    0.1300
     38 H38        -7.9460    1.9594   55.1233 H       1  ZINC000002634904    0.1300
     39 H39        -7.0996    0.8658   53.0886 H       1  ZINC000002634904    0.1300
     40 H40        -8.1021   -1.2400   52.3056 H       1  ZINC000002634904    0.1300
     41 H41        -9.9541   -2.2661   53.5580 H       1  ZINC000002634904    0.1200
     42 H42       -12.3930   -1.5296   52.8290 H       1  ZINC000002634904    0.1300
     43 H43       -12.9186    0.0342   51.0043 H       1  ZINC000002634904    0.1300
     44 H44       -13.5919    2.3448   51.5142 H       1  ZINC000002634904    0.1300
     45 H45       -13.7423    3.1048   53.8493 H       1  ZINC000002634904    0.1300
     46 H46       -13.2262    1.5540   55.6876 H       1  ZINC000002634904    0.1300
     47 H47       -13.6218    0.0072   61.3631 H       1  ZINC000002634904    0.1500
     48 H48       -13.7117    2.1667   62.5316 H       1  ZINC000002634904    0.1400
@<TRIPOS>BOND
     1     1     2    3
     2     2     3    1
     3     3    31   ar
     4     3     4   ar
     5     4     5   ar
     6     4    32    1
     7     5     6   ar
     8     5    33    1
     9     6     7    1
    10     6    30   ar
    11     7     8   am
    12     7    34    1
    13     8     9    2
    14     8    10    1
    15    10    11    1
    16    10    35    1
    17    10    36    1
    18    11    12    1
    19    12    29   ar
    20    12    13   ar
    21    13    14   ar
    22    14    15   ar
    23    15    16    1
    24    15    22   ar
    25    16    21   ar
    26    16    17   ar
    27    17    18   ar
    28    17    37    1
    29    18    19   ar
    30    18    38    1
    31    19    20   ar
    32    19    39    1
    33    20    21   ar
    34    20    40    1
    35    21    41    1
    36    22    23    1
    37    22    29   ar
    38    23    28   ar
    39    23    24   ar
    40    24    25   ar
    41    24    42    1
    42    25    26   ar
    43    25    43    1
    44    26    27   ar
    45    26    44    1
    46    27    28   ar
    47    27    45    1
    48    28    46    1
    49    30    31   ar
    50    30    47    1
    51    31    48    1
@<TRIPOS>SUBSTRUCTURE
     1 ZINC000002634904        1 TEMP              0 ****  ****    0 ROOT


##########                                Name:    ZINC000469391664
##########                DOCK_Rotatable_Bonds:                   6
##########                         Heavy_Atoms:                  29
##########                    Molecular_Weight:             408.524
##########                DOCK_Rotatable_Bonds:                   6
##########                       Formal_Charge:         -0.00999999
##########                     HBond_Acceptors:                   7
##########                        HBond_Donors:                   0
##########                         Heavy_Atoms:                  29
##########                          Grid_Score:          -24.892244
##########                     Grid_vdw_energy:          -24.765055
##########                      Grid_es_energy:           -0.127189
##########           Internal_energy_repulsive:           46.956692

@<TRIPOS>MOLECULE
ZINC000469391664
 53 56 1 0 0
SMALL
USER_CHARGES


@<TRIPOS>ATOM
      1 C1         -9.1131    3.6401   52.0735 C.3     1  ZINC000469391664   -0.1500
      2 C2         -9.5318    2.5788   53.0928 C.3     1  ZINC000469391664   -0.1000
      3 H3         -9.8305    1.6705   52.5695 H       1  ZINC000469391664    0.0800
      4 C4        -10.7092    3.1018   53.9189 C.3     1  ZINC000469391664   -0.1300
      5 C5        -11.1479    2.0237   54.9148 C.3     1  ZINC000469391664    0.1100
      6 N6         -9.9841    1.6160   55.7137 N.am    1  ZINC000469391664   -0.6100
      7 C7        -10.0332    1.6398   57.0603 C.2     1  ZINC000469391664    0.5600
      8 O8        -11.0474    2.0011   57.6255 O.2     1  ZINC000469391664   -0.5000
      9 C9         -8.8566    1.2275   57.8485 C.ar    1  ZINC000469391664   -0.1100
     10 C10        -7.8303    2.1385   58.1079 C.ar    1  ZINC000469391664   -0.0900
     11 C11        -6.7337    1.7472   58.8455 C.ar    1  ZINC000469391664   -0.1000
     12 C12        -6.6430    0.4531   59.3316 C.ar    1  ZINC000469391664   -0.0900
     13 C13        -7.6490   -0.4589   59.0830 C.ar    1  ZINC000469391664   -0.1000
     14 C14        -8.7643   -0.0810   58.3472 C.ar    1  ZINC000469391664    0.1500
     15 N15        -9.7798   -0.9987   58.0954 N.am    1  ZINC000469391664   -0.5800
     16 C16        -9.7193   -1.8500   56.9047 C.3     1  ZINC000469391664    0.0900
     17 C17       -10.8192   -1.1041   58.9470 C.2     1  ZINC000469391664    0.6100
     18 O18       -11.7072   -1.9067   58.7269 O.2     1  ZINC000469391664   -0.5200
     19 C19       -10.8797   -0.2526   60.1379 C.2     1  ZINC000469391664   -0.2600
     20 C20       -11.8840   -0.2567   61.0653 C.2     1  ZINC000469391664   -0.0500
     21 C21       -11.6865    0.6449   62.0840 C.2     1  ZINC000469391664   -0.1500
     22 C22       -10.5609    1.3633   61.9963 C.2     1  ZINC000469391664   -0.2600
     23 S23        -9.6689    0.9329   60.6071 S.3     1  ZINC000469391664    0.2300
     24 C24        -8.7660    1.1815   55.0166 C.3     1  ZINC000469391664    0.1000
     25 C25        -8.3540    2.2694   54.0197 C.3     1  ZINC000469391664    0.1300
     26 H26        -8.0707    3.1714   54.5621 H       1  ZINC000469391664    0.1000
     27 N27        -7.2166    1.7991   53.2251 N.pl3   1  ZINC000469391664   -0.4500
     28 C28        -7.0647    0.5512   52.6836 C.2     1  ZINC000469391664   -0.0500
     29 C29        -5.8840    0.5486   52.0360 C.2     1  ZINC000469391664   -0.0300
     30 N30        -5.3300    1.7617   52.1782 N.2     1  ZINC000469391664   -0.4900
     31 C31        -6.1250    2.5177   52.8849 C.2     1  ZINC000469391664    0.1800
     32 H32        -8.2749    3.2675   51.4846 H       1  ZINC000469391664    0.0600
     33 H33        -9.9518    3.8603   51.4129 H       1  ZINC000469391664    0.0600
     34 H34        -8.8144    4.5485   52.5965 H       1  ZINC000469391664    0.0600
     35 H35       -10.4037    3.9961   54.4621 H       1  ZINC000469391664    0.0700
     36 H36       -11.5397    3.3442   53.2559 H       1  ZINC000469391664    0.0900
     37 H37       -11.9195    2.4252   55.5717 H       1  ZINC000469391664    0.1000
     38 H38       -11.5386    1.1626   54.3726 H       1  ZINC000469391664    0.0800
     39 H39        -7.8958    3.1483   57.7307 H       1  ZINC000469391664    0.1400
     40 H40        -5.9411    2.4529   59.0453 H       1  ZINC000469391664    0.1400
     41 H41        -5.7795    0.1558   59.9083 H       1  ZINC000469391664    0.1400
     42 H42        -7.5708   -1.4660   59.4651 H       1  ZINC000469391664    0.1400
     43 H43        -9.2733   -2.8095   57.1664 H       1  ZINC000469391664    0.0600
     44 H44       -10.7268   -2.0102   56.5209 H       1  ZINC000469391664    0.0900
     45 H45        -9.1126   -1.3636   56.1409 H       1  ZINC000469391664    0.0700
     46 H46       -12.7466   -0.9035   61.0036 H       1  ZINC000469391664    0.1500
     47 H47       -12.3888    0.7649   62.8958 H       1  ZINC000469391664    0.1400
     48 H48       -10.2558    2.1127   62.7117 H       1  ZINC000469391664    0.1600
     49 H49        -7.9659    1.0274   55.7405 H       1  ZINC000469391664    0.1000
     50 H50        -8.9624    0.2518   54.4826 H       1  ZINC000469391664    0.0800
     51 H51        -7.7583   -0.2730   52.7612 H       1  ZINC000469391664    0.1700
     52 H52        -5.4578   -0.2845   51.4967 H       1  ZINC000469391664    0.1700
     53 H53        -5.9377    3.5457   53.1584 H       1  ZINC000469391664    0.2000
@<TRIPOS>BOND
     1     1     2    1
     2     1    32    1
     3     1    33    1
     4     1    34    1
     5     2     3    1
     6     2    25    1
     7     2     4    1
     8     4     5    1
     9     4    35    1
    10     4    36    1
    11     5     6    1
    12     5    37    1
    13     5    38    1
    14     6     7   am
    15     6    24    1
    16     7     8    2
    17     7     9    1
    18     9    14   ar
    19     9    10   ar
    20    10    11   ar
    21    10    39    1
    22    11    12   ar
    23    11    40    1
    24    12    13   ar
    25    12    41    1
    26    13    14   ar
    27    13    42    1
    28    14    15    1
    29    15    16    1
    30    15    17   am
    31    16    43    1
    32    16    44    1
    33    16    45    1
    34    17    18    2
    35    17    19    1
    36    19    23    1
    37    19    20    2
    38    20    21    1
    39    20    46    1
    40    21    22    2
    41    21    47    1
    42    22    23    1
    43    22    48    1
    44    24    25    1
    45    24    49    1
    46    24    50    1
    47    25    26    1
    48    25    27    1
    49    27    31    1
    50    27    28    1
    51    28    29    2
    52    28    51    1
    53    29    30    1
    54    29    52    1
    55    30    31    2
    56    31    53    1
@<TRIPOS>SUBSTRUCTURE
     1 ZINC000469391664        1 TEMP              0 ****  ****    0 ROOT


##########                                Name:    ZINC000430767928
##########                DOCK_Rotatable_Bonds:                   4
##########                         Heavy_Atoms:                  25
##########                    Molecular_Weight:             358.505
##########                DOCK_Rotatable_Bonds:                   4
##########                       Formal_Charge:          -0.0100002
##########                     HBond_Acceptors:                   5
##########                        HBond_Donors:                   0
##########                         Heavy_Atoms:                  25
##########                          Grid_Score:          -24.869293
##########                     Grid_vdw_energy:          -23.955133
##########                      Grid_es_energy:           -0.914160
##########           Internal_energy_repulsive:           14.666221

@<TRIPOS>MOLECULE
ZINC000430767928
 51 55 1 0 0
SMALL
USER_CHARGES


@<TRIPOS>ATOM
      1 O1         -8.3459    3.5041   61.0069 O.2     1  ZINC000430767928   -0.4600
      2 C2         -7.5965    2.7841   60.3827 C.2     1  ZINC000430767928    0.5300
      3 C3         -6.4870    3.2051   59.4495 C.3     1  ZINC000430767928    0.0400
      4 H4         -5.6329    3.6333   59.9742 H       1  ZINC000430767928    0.1400
      5 C5         -7.0118    4.1141   58.3190 C.3     1  ZINC000430767928   -0.1100
      6 C6         -6.0707    3.7553   57.1407 C.3     1  ZINC000430767928   -0.1000
      7 H7         -5.2565    4.4767   57.0725 H       1  ZINC000430767928    0.1000
      8 C8         -6.8546    3.7133   55.8274 C.3     1  ZINC000430767928   -0.0800
      9 C9         -7.5623    5.0526   55.6126 C.3     1  ZINC000430767928   -0.1100
     10 C10        -8.3461    5.0105   54.2993 C.3     1  ZINC000430767928   -0.1200
     11 C11        -7.3834    4.7506   53.1389 C.3     1  ZINC000430767928   -0.1200
     12 C12        -6.6757    3.4112   53.3537 C.3     1  ZINC000430767928   -0.1200
     13 C13        -5.8918    3.4533   54.6670 C.3     1  ZINC000430767928   -0.1200
     14 C14        -5.5199    2.3545   57.4853 C.3     1  ZINC000430767928    0.1600
     15 N15        -6.1638    1.9347   58.7413 N.am    1  ZINC000430767928   -0.6400
     16 C16        -6.6426    0.9590   59.5196 C.2     1  ZINC000430767928    0.7400
     17 O17        -6.2972   -0.2041   59.4480 O.2     1  ZINC000430767928   -0.5100
     18 N18        -7.5722    1.4327   60.3780 N.am    1  ZINC000430767928   -0.5800
     19 C19        -8.4487    0.5897   61.1948 C.3     1  ZINC000430767928    0.2600
     20 H20        -8.3118   -0.4550   60.9152 H       1  ZINC000430767928    0.1200
     21 C21        -8.1042    0.7693   62.6508 C.2     1  ZINC000430767928   -0.2100
     22 C22        -8.8948    0.4420   63.6741 C.2     1  ZINC000430767928   -0.1200
     23 C23        -8.3642    0.6988   64.9265 C.2     1  ZINC000430767928   -0.1400
     24 C24        -7.1427    1.2349   64.9202 C.2     1  ZINC000430767928   -0.2300
     25 S25        -6.5952    1.4358   63.2610 S.3     1  ZINC000430767928    0.1700
     26 C26        -9.9060    0.9932   60.9619 C.3     1  ZINC000430767928   -0.1700
     27 C27       -10.3324    1.3030   59.5254 C.3     1  ZINC000430767928   -0.1700
     28 C28       -10.7979    0.0108   60.1999 C.3     1  ZINC000430767928   -0.1600
     29 H29        -8.0465    3.8724   58.0761 H       1  ZINC000430767928    0.0800
     30 H30        -6.9114    5.1655   58.5889 H       1  ZINC000430767928    0.1000
     31 H31        -7.5946    2.9142   55.8714 H       1  ZINC000430767928    0.0700
     32 H32        -8.2481    5.2378   56.4394 H       1  ZINC000430767928    0.0600
     33 H33        -6.8222    5.8516   55.5686 H       1  ZINC000430767928    0.0700
     34 H34        -9.0862    4.2115   54.3434 H       1  ZINC000430767928    0.0600
     35 H35        -8.8503    5.9647   54.1464 H       1  ZINC000430767928    0.0600
     36 H36        -7.9417    4.7206   52.2034 H       1  ZINC000430767928    0.0600
     37 H37        -6.6433    5.5495   53.0949 H       1  ZINC000430767928    0.0600
     38 H38        -7.4157    2.6121   53.3977 H       1  ZINC000430767928    0.0600
     39 H39        -5.9898    3.2260   52.5270 H       1  ZINC000430767928    0.0600
     40 H40        -5.1517    4.2523   54.6230 H       1  ZINC000430767928    0.0700
     41 H41        -5.3877    2.4991   54.8199 H       1  ZINC000430767928    0.0600
     42 H42        -5.7569    1.6531   56.6853 H       1  ZINC000430767928    0.0900
     43 H43        -4.4410    2.4035   57.6320 H       1  ZINC000430767928    0.0800
     44 H44        -9.8747    0.0095   63.5359 H       1  ZINC000430767928    0.1400
     45 H45        -8.8988    0.4821   65.8395 H       1  ZINC000430767928    0.1400
     46 H46        -6.5754    1.5015   65.7997 H       1  ZINC000430767928    0.1600
     47 H47       -10.3661    1.5753   61.7604 H       1  ZINC000430767928    0.1200
     48 H48       -11.0729    2.0891   59.3787 H       1  ZINC000430767928    0.1000
     49 H49        -9.5746    1.2193   58.7465 H       1  ZINC000430767928    0.1000
     50 H50       -10.3463   -0.9228   59.8645 H       1  ZINC000430767928    0.1000
     51 H51       -11.8447   -0.0530   60.4968 H       1  ZINC000430767928    0.1000
@<TRIPOS>BOND
     1     1     2    2
     2     2    18   am
     3     2     3    1
     4     3     4    1
     5     3    15    1
     6     3     5    1
     7     5     6    1
     8     5    29    1
     9     5    30    1
    10     6     7    1
    11     6     8    1
    12     6    14    1
    13     8    13    1
    14     8     9    1
    15     8    31    1
    16     9    10    1
    17     9    32    1
    18     9    33    1
    19    10    11    1
    20    10    34    1
    21    10    35    1
    22    11    12    1
    23    11    36    1
    24    11    37    1
    25    12    13    1
    26    12    38    1
    27    12    39    1
    28    13    40    1
    29    13    41    1
    30    14    15    1
    31    14    42    1
    32    14    43    1
    33    15    16   am
    34    16    17    2
    35    16    18   am
    36    18    19    1
    37    19    20    1
    38    19    21    1
    39    19    26    1
    40    21    25    1
    41    21    22    2
    42    22    23    1
    43    22    44    1
    44    23    24    2
    45    23    45    1
    46    24    25    1
    47    24    46    1
    48    26    28    1
    49    26    27    1
    50    26    47    1
    51    27    28    1
    52    27    48    1
    53    27    49    1
    54    28    50    1
    55    28    51    1
@<TRIPOS>SUBSTRUCTURE
     1 ZINC000430767928        1 TEMP              0 ****  ****    0 ROOT


##########                                Name:    ZINC000956479608
##########                DOCK_Rotatable_Bonds:                   5
##########                         Heavy_Atoms:                  25
##########                    Molecular_Weight:             345.442
##########                DOCK_Rotatable_Bonds:                   5
##########                       Formal_Charge:          -0.0100001
##########                     HBond_Acceptors:                   6
##########                        HBond_Donors:                   1
##########                         Heavy_Atoms:                  25
##########                          Grid_Score:          -24.854794
##########                     Grid_vdw_energy:          -25.095800
##########                      Grid_es_energy:            0.241007
##########           Internal_energy_repulsive:           31.858387

@<TRIPOS>MOLECULE
ZINC000956479608
 52 55 1 0 0
SMALL
USER_CHARGES


@<TRIPOS>ATOM
      1 C1        -10.8707    5.9225   52.1653 C.3     1  ZINC000956479608   -0.0900
      2 C2        -10.1739    5.4212   50.9266 C.2     1  ZINC000956479608   -0.1100
      3 C3         -9.1766    4.4887   50.8384 C.2     1  ZINC000956479608   -0.1000
      4 C4         -8.5500    3.7527   51.9526 C.2     1  ZINC000956479608    0.6100
      5 O5         -8.9146    3.9531   53.0950 O.2     1  ZINC000956479608   -0.5000
      6 N6         -7.5731    2.8579   51.7042 N.am    1  ZINC000956479608   -0.7100
      7 C7         -6.9495    2.1282   52.8109 C.3     1  ZINC000956479608    0.1800
      8 C8         -8.0155    1.3195   53.5531 C.3     1  ZINC000956479608   -0.1700
      9 C9         -5.8827    1.1796   52.2592 C.3     1  ZINC000956479608   -0.1500
     10 C10        -4.8356    1.9887   51.4875 C.3     1  ZINC000956479608    0.1100
     11 N11        -4.3100    3.0421   52.3665 N.am    1  ZINC000956479608   -0.6100
     12 C12        -2.9835    3.1700   52.5680 C.2     1  ZINC000956479608    0.5500
     13 O13        -2.2111    2.4122   52.0201 O.2     1  ZINC000956479608   -0.5400
     14 C14        -2.4600    4.2545   53.4739 C.3     1  ZINC000956479608   -0.1900
     15 H15        -2.6462    5.2758   53.1415 H       1  ZINC000956479608    0.1200
     16 C16        -2.4758    3.9880   54.9734 C.3     1  ZINC000956479608   -0.1100
     17 H17        -2.8568    3.0139   55.2800 H       1  ZINC000956479608    0.1000
     18 C18        -2.7816    5.1214   55.9401 C.3     1  ZINC000956479608   -0.0900
     19 C19        -1.9241    6.3455   55.6190 C.3     1  ZINC000956479608   -0.1200
     20 C20        -0.4504    5.9233   55.6184 C.3     1  ZINC000956479608   -0.1200
     21 C21        -0.1721    5.1277   54.3430 C.3     1  ZINC000956479608   -0.0900
     22 C22        -1.1487    3.9802   54.2263 C.3     1  ZINC000956479608   -0.1100
     23 H23        -0.7002    2.9984   54.0748 H       1  ZINC000956479608    0.1100
     24 C24        -5.2579    3.9539   53.0213 C.3     1  ZINC000956479608    0.1000
     25 C25        -6.3004    3.1228   53.7759 C.3     1  ZINC000956479608   -0.1400
     26 O26        -8.8831    4.3783   49.5289 O.3     1  ZINC000956479608    0.1200
     27 N27        -9.5694    5.1135   48.8582 N.2     1  ZINC000956479608   -0.3400
     28 C28       -10.4022    5.8002   49.5850 C.2     1  ZINC000956479608   -0.0100
     29 H29       -11.7391    5.2969   52.3719 H       1  ZINC000956479608    0.0800
     30 H30       -10.1838    5.8811   53.0106 H       1  ZINC000956479608    0.0900
     31 H31       -11.1933    6.9519   52.0093 H       1  ZINC000956479608    0.0800
     32 H32        -7.2830    2.6970   50.7927 H       1  ZINC000956479608    0.4100
     33 H33        -8.4784    0.6114   52.8658 H       1  ZINC000956479608    0.0800
     34 H34        -7.5517    0.7765   54.3766 H       1  ZINC000956479608    0.0700
     35 H35        -8.7759    1.9947   53.9457 H       1  ZINC000956479608    0.0600
     36 H36        -5.4013    0.6543   53.0842 H       1  ZINC000956479608    0.0800
     37 H37        -6.3495    0.4567   51.5902 H       1  ZINC000956479608    0.1000
     38 H38        -4.0226    1.3323   51.1772 H       1  ZINC000956479608    0.0900
     39 H39        -5.2975    2.4415   50.6102 H       1  ZINC000956479608    0.0600
     40 H40        -3.8351    5.3891   55.8588 H       1  ZINC000956479608    0.0700
     41 H41        -2.5722    4.7924   56.9579 H       1  ZINC000956479608    0.0700
     42 H42        -2.1938    6.7340   54.6370 H       1  ZINC000956479608    0.0600
     43 H43        -2.0844    7.1134   56.3758 H       1  ZINC000956479608    0.0700
     44 H44         0.1842    6.8092   55.6429 H       1  ZINC000956479608    0.0700
     45 H45        -0.2477    5.3005   56.4898 H       1  ZINC000956479608    0.0700
     46 H46        -0.2827    5.7816   53.4779 H       1  ZINC000956479608    0.0700
     47 H47         0.8467    4.7414   54.3732 H       1  ZINC000956479608    0.0700
     48 H48        -4.7235    4.5943   53.7231 H       1  ZINC000956479608    0.0900
     49 H49        -5.7542    4.5670   52.2691 H       1  ZINC000956479608    0.0700
     50 H50        -7.0643    3.7831   54.1863 H       1  ZINC000956479608    0.0900
     51 H51        -5.8149    2.5793   54.5866 H       1  ZINC000956479608    0.0900
     52 H52       -11.1217    6.5242   49.2322 H       1  ZINC000956479608    0.2000
@<TRIPOS>BOND
     1     1     2    1
     2     1    29    1
     3     1    30    1
     4     1    31    1
     5     2    28    1
     6     2     3    2
     7     3     4    1
     8     3    26    1
     9     4     5    2
    10     4     6   am
    11     6     7    1
    12     6    32    1
    13     7    25    1
    14     7     8    1
    15     7     9    1
    16     8    33    1
    17     8    34    1
    18     8    35    1
    19     9    10    1
    20     9    36    1
    21     9    37    1
    22    10    11    1
    23    10    38    1
    24    10    39    1
    25    11    12   am
    26    11    24    1
    27    12    13    2
    28    12    14    1
    29    14    15    1
    30    14    22    1
    31    14    16    1
    32    16    17    1
    33    16    22    1
    34    16    18    1
    35    18    19    1
    36    18    40    1
    37    18    41    1
    38    19    20    1
    39    19    42    1
    40    19    43    1
    41    20    21    1
    42    20    44    1
    43    20    45    1
    44    21    22    1
    45    21    46    1
    46    21    47    1
    47    22    23    1
    48    24    25    1
    49    24    48    1
    50    24    49    1
    51    25    50    1
    52    25    51    1
    53    26    27    1
    54    27    28    2
    55    28    52    1
@<TRIPOS>SUBSTRUCTURE
     1 ZINC000956479608        1 TEMP              0 ****  ****    0 ROOT


##########                                Name:    ZINC000010935976
##########                DOCK_Rotatable_Bonds:                   3
##########                         Heavy_Atoms:                  26
##########                    Molecular_Weight:             391.558
##########                DOCK_Rotatable_Bonds:                   3
##########                       Formal_Charge:         -0.00999979
##########                     HBond_Acceptors:                   7
##########                        HBond_Donors:                   1
##########                         Heavy_Atoms:                  26
##########                          Grid_Score:          -24.844677
##########                     Grid_vdw_energy:          -24.224960
##########                      Grid_es_energy:           -0.619717
##########           Internal_energy_repulsive:          126.064774

@<TRIPOS>MOLECULE
ZINC000010935976
 51 54 1 0 0
SMALL
USER_CHARGES


@<TRIPOS>ATOM
      1 C1         -5.1043    3.5964   55.0285 C.3     1  ZINC000010935976   -0.0800
      2 C2         -5.7695    2.9147   56.1963 C.2     1  ZINC000010935976   -0.2100
      3 C3         -6.8602    2.1790   56.1056 C.2     1  ZINC000010935976   -0.0400
      4 C4         -7.5700    1.9372   54.7983 C.3     1  ZINC000010935976   -0.1000
      5 C5         -7.3239    1.6197   57.3618 C.2     1  ZINC000010935976   -0.2300
      6 C6         -6.5057    1.9812   58.4299 C.2     1  ZINC000010935976    0.0900
      7 N7         -6.7969    1.5440   59.6711 N.2     1  ZINC000010935976   -0.4900
      8 C8         -7.8377    0.7810   59.9042 C.2     1  ZINC000010935976    0.3400
      9 S9         -8.1599    0.2457   61.5517 S.3     1  ZINC000010935976    0.0500
     10 C10        -9.1769    1.6238   62.1368 C.3     1  ZINC000010935976   -0.1000
     11 H11        -9.8711    1.9255   61.3524 H       1  ZINC000010935976    0.1400
     12 C12        -8.2775    2.8048   62.5097 C.3     1  ZINC000010935976   -0.1000
     13 C13        -6.9667    2.3170   63.0995 C.3     1  ZINC000010935976   -0.1300
     14 C14        -7.1182    1.6270   64.4428 C.3     1  ZINC000010935976   -0.1400
     15 C15        -7.8793    0.3080   64.2954 C.3     1  ZINC000010935976    0.0700
     16 N16        -9.3226    0.5856   64.3741 N.am    1  ZINC000010935976   -0.7200
     17 C17        -9.9520    1.1981   63.3660 C.2     1  ZINC000010935976    0.5400
     18 O18       -11.1426    1.4168   63.4406 O.2     1  ZINC000010935976   -0.5200
     19 N19        -8.6776    0.3920   58.9012 N.am    1  ZINC000010935976   -0.5100
     20 C20        -9.8298   -0.4605   59.2041 C.3     1  ZINC000010935976    0.1200
     21 C21       -11.1295    0.3689   59.1505 C.3     1  ZINC000010935976   -0.1300
     22 C22       -11.6728    0.1314   57.7196 C.3     1  ZINC000010935976   -0.1300
     23 C23       -11.3442   -1.3620   57.4727 C.3     1  ZINC000010935976   -0.1100
     24 C24        -9.9663   -1.5610   58.1373 C.3     1  ZINC000010935976   -0.1200
     25 C25        -8.4523    0.7894   57.6338 C.2     1  ZINC000010935976    0.5600
     26 O26        -9.1991    0.4446   56.7341 O.2     1  ZINC000010935976   -0.5000
     27 S27        -5.1886    2.9919   57.8488 S.3     1  ZINC000010935976    0.2100
     28 H28        -4.2217    4.1335   55.3760 H       1  ZINC000010935976    0.0700
     29 H29        -4.8084    2.8492   54.2921 H       1  ZINC000010935976    0.0800
     30 H30        -5.8015    4.2994   54.5729 H       1  ZINC000010935976    0.0800
     31 H31        -7.1639    1.0437   54.3242 H       1  ZINC000010935976    0.0700
     32 H32        -8.6351    1.7982   54.9835 H       1  ZINC000010935976    0.0800
     33 H33        -7.4242    2.7950   54.1418 H       1  ZINC000010935976    0.0700
     34 H34        -8.0717    3.3951   61.6167 H       1  ZINC000010935976    0.0900
     35 H35        -8.7900    3.4293   63.2415 H       1  ZINC000010935976    0.0900
     36 H36        -6.5086    1.6186   62.3992 H       1  ZINC000010935976    0.0700
     37 H37        -6.3004    3.1711   63.2203 H       1  ZINC000010935976    0.0800
     38 H38        -6.1299    1.4262   64.8561 H       1  ZINC000010935976    0.0800
     39 H39        -7.6639    2.2815   65.1224 H       1  ZINC000010935976    0.0700
     40 H40        -7.6456   -0.1433   63.3311 H       1  ZINC000010935976    0.1100
     41 H41        -7.5931   -0.3711   65.0986 H       1  ZINC000010935976    0.0900
     42 H42        -9.8221    0.3202   65.1622 H       1  ZINC000010935976    0.4000
     43 H43        -9.7129   -0.9092   60.1906 H       1  ZINC000010935976    0.1000
     44 H44       -11.8419    0.0102   59.8934 H       1  ZINC000010935976    0.0800
     45 H45       -10.9142    1.4259   59.3062 H       1  ZINC000010935976    0.0700
     46 H46       -12.7489    0.3014   57.6819 H       1  ZINC000010935976    0.0600
     47 H47       -11.1551    0.7650   56.9997 H       1  ZINC000010935976    0.1100
     48 H48       -12.0911   -2.0002   57.9447 H       1  ZINC000010935976    0.0600
     49 H49       -11.2854   -1.5680   56.4040 H       1  ZINC000010935976    0.0700
     50 H50        -9.1753   -1.4607   57.3942 H       1  ZINC000010935976    0.0800
     51 H51        -9.9163   -2.5437   58.6062 H       1  ZINC000010935976    0.0700
@<TRIPOS>BOND
     1     1     2    1
     2     1    28    1
     3     1    29    1
     4     1    30    1
     5     2    27    1
     6     2     3    2
     7     3     4    1
     8     3     5    1
     9     4    31    1
    10     4    32    1
    11     4    33    1
    12     5    25    1
    13     5     6    2
    14     6     7    1
    15     6    27    1
    16     7     8    2
    17     8     9    1
    18     8    19    1
    19     9    10    1
    20    10    11    1
    21    10    17    1
    22    10    12    1
    23    12    13    1
    24    12    34    1
    25    12    35    1
    26    13    14    1
    27    13    36    1
    28    13    37    1
    29    14    15    1
    30    14    38    1
    31    14    39    1
    32    15    16    1
    33    15    40    1
    34    15    41    1
    35    16    17   am
    36    16    42    1
    37    17    18    2
    38    19    20    1
    39    19    25   am
    40    20    24    1
    41    20    21    1
    42    20    43    1
    43    21    22    1
    44    21    44    1
    45    21    45    1
    46    22    23    1
    47    22    46    1
    48    22    47    1
    49    23    24    1
    50    23    48    1
    51    23    49    1
    52    24    50    1
    53    24    51    1
    54    25    26    2
@<TRIPOS>SUBSTRUCTURE
     1 ZINC000010935976        1 TEMP              0 ****  ****    0 ROOT


##########                                Name:    ZINC001139743874
##########                DOCK_Rotatable_Bonds:                   5
##########                         Heavy_Atoms:                  28
##########                    Molecular_Weight:             382.506
##########                DOCK_Rotatable_Bonds:                   5
##########                       Formal_Charge:           0.0199992
##########                     HBond_Acceptors:                   6
##########                        HBond_Donors:                   0
##########                         Heavy_Atoms:                  28
##########                          Grid_Score:          -24.833937
##########                     Grid_vdw_energy:          -24.608713
##########                      Grid_es_energy:           -0.225224
##########           Internal_energy_repulsive:           49.067532

@<TRIPOS>MOLECULE
ZINC001139743874
 58 61 1 0 0
SMALL
USER_CHARGES


@<TRIPOS>ATOM
      1 C1        -10.9624    5.8308   57.2472 C.3     1  ZINC001139743874   -0.1800
      2 C2        -11.0491    4.7022   56.2177 C.3     1  ZINC001139743874    0.1400
      3 C3        -12.1705    3.7385   56.6107 C.3     1  ZINC001139743874   -0.1800
      4 C4        -11.3444    5.2927   54.8375 C.3     1  ZINC001139743874   -0.1400
      5 O5         -9.7869    3.9856   56.1777 O.3     1  ZINC001139743874   -0.3600
      6 C6         -8.6917    4.6947   55.8457 C.2     1  ZINC001139743874    0.6500
      7 O7         -8.6426    5.8849   56.0861 O.2     1  ZINC001139743874   -0.5700
      8 N8         -7.6498    4.0847   55.2467 N.am    1  ZINC001139743874   -0.5900
      9 C9         -6.4800    4.8219   54.8877 C.3     1  ZINC001139743874    0.1000
     10 C10        -6.5251    5.5277   53.5025 C.3     1  ZINC001139743874   -0.1300
     11 C11        -7.2137    4.5893   52.4697 C.3     1  ZINC001139743874   -0.0900
     12 C12        -6.8288    3.1608   52.6739 C.3     1  ZINC001139743874   -0.0800
     13 C13        -6.4258    2.3903   51.4111 C.3     1  ZINC001139743874    0.0100
     14 N14        -5.0355    2.7716   51.7496 N.3     1  ZINC001139743874   -0.4700
     15 C15        -4.1176    1.6412   51.5555 C.3     1  ZINC001139743874    0.0600
     16 C16        -2.6955    2.1394   51.5776 C.ar    1  ZINC001139743874   -0.1200
     17 C17        -2.2818    3.0216   52.5738 C.ar    1  ZINC001139743874    0.1500
     18 N18        -1.0525    3.4749   52.6235 N.ar    1  ZINC001139743874   -0.4600
     19 C19        -0.1414    3.1090   51.7190 C.ar    1  ZINC001139743874    0.0800
     20 C20         1.1794    3.5976   51.7755 C.ar    1  ZINC001139743874   -0.0400
     21 C21         2.0623    3.1840   50.8202 C.ar    1  ZINC001139743874   -0.1600
     22 C22         1.6484    2.3016   49.8236 C.ar    1  ZINC001139743874    0.1300
     23 N23         0.4192    1.8488   49.7736 N.ar    1  ZINC001139743874   -0.4700
     24 C24        -0.4921    2.2146   50.6784 C.ar    1  ZINC001139743874    0.0800
     25 C25        -1.8110    1.7220   50.6250 C.ar    1  ZINC001139743874   -0.0400
     26 C26        -5.4009    2.9194   53.1772 C.3     1  ZINC001139743874    0.0000
     27 C27        -7.9018    2.4536   53.5075 C.3     1  ZINC001139743874   -0.1300
     28 C28        -7.6900    2.6182   54.9484 C.3     1  ZINC001139743874    0.1400
     29 H29       -10.7521    5.4102   58.2305 H       1  ZINC001139743874    0.0900
     30 H30       -10.1635    6.5174   56.9671 H       1  ZINC001139743874    0.0600
     31 H31       -11.9099    6.3688   57.2772 H       1  ZINC001139743874    0.0700
     32 H32       -13.1180    4.2764   56.6407 H       1  ZINC001139743874    0.0700
     33 H33       -12.2324    2.9345   55.8772 H       1  ZINC001139743874    0.0600
     34 H34       -11.9602    3.3179   57.5940 H       1  ZINC001139743874    0.0900
     35 H35       -10.5454    5.9792   54.5574 H       1  ZINC001139743874    0.0700
     36 H36       -11.4062    4.4887   54.1040 H       1  ZINC001139743874    0.0700
     37 H37       -12.2919    5.8306   54.8675 H       1  ZINC001139743874    0.0800
     38 H38        -6.3071    5.5802   55.6514 H       1  ZINC001139743874    0.0700
     39 H39        -5.6308    4.1385   54.8947 H       1  ZINC001139743874    0.0900
     40 H40        -7.0911    6.4556   53.5852 H       1  ZINC001139743874    0.0700
     41 H41        -5.5096    5.7483   53.1734 H       1  ZINC001139743874    0.0800
     42 H42        -8.2950    4.6835   52.5702 H       1  ZINC001139743874    0.0600
     43 H43        -6.9241    4.8947   51.4642 H       1  ZINC001139743874    0.0700
     44 H44        -6.6150    1.3185   51.4706 H       1  ZINC001139743874    0.0700
     45 H45        -6.7921    2.8379   50.4871 H       1  ZINC001139743874    0.0900
     46 H46        -4.2608    0.9153   52.3560 H       1  ZINC001139743874    0.0600
     47 H47        -4.3219    1.1680   50.5951 H       1  ZINC001139743874    0.0900
     48 H48        -2.9913    3.3400   53.3233 H       1  ZINC001139743874    0.1700
     49 H49         1.4847    4.2814   52.5537 H       1  ZINC001139743874    0.1500
     50 H50         3.0816    3.5406   50.8363 H       1  ZINC001139743874    0.1500
     51 H51         2.3578    1.9835   49.0739 H       1  ZINC001139743874    0.1700
     52 H52        -2.1153    1.0355   49.8488 H       1  ZINC001139743874    0.1400
     53 H53        -4.9514    3.7881   53.6584 H       1  ZINC001139743874    0.1000
     54 H54        -5.2879    2.0036   53.7572 H       1  ZINC001139743874    0.0700
     55 H55        -8.8782    2.8603   53.2440 H       1  ZINC001139743874    0.0700
     56 H56        -7.8891    1.3899   53.2696 H       1  ZINC001139743874    0.0800
     57 H57        -6.7467    2.1541   55.2364 H       1  ZINC001139743874    0.0800
     58 H58        -8.5104    2.1537   55.4956 H       1  ZINC001139743874    0.1000
@<TRIPOS>BOND
     1     1     2    1
     2     1    29    1
     3     1    30    1
     4     1    31    1
     5     2     3    1
     6     2     4    1
     7     2     5    1
     8     3    32    1
     9     3    33    1
    10     3    34    1
    11     4    35    1
    12     4    36    1
    13     4    37    1
    14     5     6    1
    15     6     7    2
    16     6     8   am
    17     8    28    1
    18     8     9    1
    19     9    10    1
    20     9    38    1
    21     9    39    1
    22    10    11    1
    23    10    40    1
    24    10    41    1
    25    11    12    1
    26    11    42    1
    27    11    43    1
    28    12    26    1
    29    12    13    1
    30    12    27    1
    31    13    14    1
    32    13    44    1
    33    13    45    1
    34    14    15    1
    35    14    26    1
    36    15    16    1
    37    15    46    1
    38    15    47    1
    39    16    25   ar
    40    16    17   ar
    41    17    18   ar
    42    17    48    1
    43    18    19   ar
    44    19    24   ar
    45    19    20   ar
    46    20    21   ar
    47    20    49    1
    48    21    22   ar
    49    21    50    1
    50    22    23   ar
    51    22    51    1
    52    23    24   ar
    53    24    25   ar
    54    25    52    1
    55    26    53    1
    56    26    54    1
    57    27    28    1
    58    27    55    1
    59    27    56    1
    60    28    57    1
    61    28    58    1
@<TRIPOS>SUBSTRUCTURE
     1 ZINC001139743874        1 TEMP              0 ****  ****    0 ROOT


##########                                Name:    ZINC000942661662
##########                DOCK_Rotatable_Bonds:                   6
##########                         Heavy_Atoms:                  25
##########                    Molecular_Weight:             343.426
##########                DOCK_Rotatable_Bonds:                   6
##########                       Formal_Charge:           0.0399997
##########                     HBond_Acceptors:                   6
##########                        HBond_Donors:                   1
##########                         Heavy_Atoms:                  25
##########                          Grid_Score:          -24.808844
##########                     Grid_vdw_energy:          -24.115177
##########                      Grid_es_energy:           -0.693667
##########           Internal_energy_repulsive:           34.486641

@<TRIPOS>MOLECULE
ZINC000942661662
 50 52 1 0 0
SMALL
USER_CHARGES


@<TRIPOS>ATOM
      1 C1         -8.6712    1.9062   60.5079 C.3     1  ZINC000942661662   -0.1700
      2 C2         -9.8723    1.9202   59.5603 C.3     1  ZINC000942661662    0.1000
      3 N3         -9.7785    0.7873   58.6362 N.am    1  ZINC000942661662   -0.6000
      4 C4        -10.6184   -0.2588   58.7652 C.2     1  ZINC000942661662    0.6000
      5 O5        -11.4542   -0.2622   59.6487 O.2     1  ZINC000942661662   -0.5200
      6 C6        -10.5242   -1.3985   57.8356 C.2     1  ZINC000942661662   -0.2400
      7 C7        -11.4730   -1.8223   56.9517 C.2     1  ZINC000942661662    0.0700
      8 C8        -12.8291   -1.1977   56.7473 C.3     1  ZINC000942661662   -0.0900
      9 O9        -10.9953   -2.8856   56.2978 O.3     1  ZINC000942661662   -0.1700
     10 C10        -9.7562   -3.1879   56.7155 C.2     1  ZINC000942661662   -0.0300
     11 C11        -9.3858   -2.3125   57.6626 C.2     1  ZINC000942661662   -0.1900
     12 C12        -8.7717    0.7915   57.5719 C.3     1  ZINC000942661662    0.1400
     13 H13        -7.9994    0.0470   57.7646 H       1  ZINC000942661662    0.1100
     14 C14        -8.1523    2.2034   57.3980 C.3     1  ZINC000942661662   -0.1400
     15 C15        -7.7030    2.2042   55.9216 C.3     1  ZINC000942661662    0.1000
     16 N16        -8.4953    1.1811   55.2237 N.am    1  ZINC000942661662   -0.6200
     17 C17        -8.3866    0.8576   53.9198 C.2     1  ZINC000942661662    0.6100
     18 O18        -9.0980   -0.0089   53.4467 O.2     1  ZINC000942661662   -0.5200
     19 C19        -7.4109    1.5499   53.0713 C.2     1  ZINC000942661662   -0.0600
     20 C20        -7.6110    2.7390   52.4029 C.2     1  ZINC000942661662   -0.0700
     21 C21        -8.8693    3.5682   52.4074 C.3     1  ZINC000942661662   -0.0900
     22 C22        -6.4258    3.0311   51.7204 C.2     1  ZINC000942661662   -0.2100
     23 C23        -5.5423    2.0373   51.9780 C.2     1  ZINC000942661662    0.0500
     24 C24        -4.1365    1.9535   51.4415 C.3     1  ZINC000942661662   -0.0900
     25 N25        -6.1266    1.1338   52.8021 N.pl3   1  ZINC000942661662   -0.5400
     26 C26        -9.4274    0.5657   56.1867 C.3     1  ZINC000942661662    0.0900
     27 H27        -8.7410    2.7491   61.1955 H       1  ZINC000942661662    0.0700
     28 H28        -8.6661    0.9749   61.0742 H       1  ZINC000942661662    0.0600
     29 H29        -7.7509    1.9845   59.9292 H       1  ZINC000942661662    0.0600
     30 H30       -10.7926    1.8419   60.1390 H       1  ZINC000942661662    0.0900
     31 H31        -9.8775    2.8515   58.9939 H       1  ZINC000942661662    0.0800
     32 H32       -12.7623   -0.4277   55.9785 H       1  ZINC000942661662    0.0900
     33 H33       -13.5384   -1.9637   56.4337 H       1  ZINC000942661662    0.0900
     34 H34       -13.1674   -0.7498   57.6816 H       1  ZINC000942661662    0.1000
     35 H35        -9.1517   -4.0026   56.3450 H       1  ZINC000942661662    0.2100
     36 H36        -8.4462   -2.2890   58.1947 H       1  ZINC000942661662    0.1600
     37 H37        -8.8998    2.9769   57.5741 H       1  ZINC000942661662    0.1000
     38 H38        -7.2972    2.3338   58.0614 H       1  ZINC000942661662    0.0900
     39 H39        -7.8883    3.1827   55.4784 H       1  ZINC000942661662    0.0700
     40 H40        -6.6428    1.9603   55.8566 H       1  ZINC000942661662    0.0700
     41 H41        -8.8287    4.2859   53.2267 H       1  ZINC000942661662    0.0700
     42 H42        -8.9562    4.1018   51.4609 H       1  ZINC000942661662    0.0600
     43 H43        -9.7333    2.9165   52.5379 H       1  ZINC000942661662    0.0800
     44 H44        -6.2471    3.8954   51.0979 H       1  ZINC000942661662    0.1400
     45 H45        -3.4544    2.4512   52.1307 H       1  ZINC000942661662    0.0800
     46 H46        -3.8490    0.9072   51.3378 H       1  ZINC000942661662    0.0700
     47 H47        -4.0895    2.4414   50.4679 H       1  ZINC000942661662    0.0900
     48 H48        -5.7111    0.3256   53.1412 H       1  ZINC000942661662    0.4100
     49 H49        -9.5325   -0.5002   55.9847 H       1  ZINC000942661662    0.0800
     50 H50       -10.3985    1.0586   56.1425 H       1  ZINC000942661662    0.1000
@<TRIPOS>BOND
     1     1     2    1
     2     1    27    1
     3     1    28    1
     4     1    29    1
     5     2     3    1
     6     2    30    1
     7     2    31    1
     8     3     4   am
     9     3    12    1
    10     4     5    2
    11     4     6    1
    12     6    11    1
    13     6     7    2
    14     7     8    1
    15     7     9    1
    16     8    32    1
    17     8    33    1
    18     8    34    1
    19     9    10    1
    20    10    11    2
    21    10    35    1
    22    11    36    1
    23    12    13    1
    24    12    26    1
    25    12    14    1
    26    14    15    1
    27    14    37    1
    28    14    38    1
    29    15    16    1
    30    15    39    1
    31    15    40    1
    32    16    17   am
    33    16    26    1
    34    17    18    2
    35    17    19    1
    36    19    25    1
    37    19    20    2
    38    20    21    1
    39    20    22    1
    40    21    41    1
    41    21    42    1
    42    21    43    1
    43    22    23    2
    44    22    44    1
    45    23    24    1
    46    23    25    1
    47    24    45    1
    48    24    46    1
    49    24    47    1
    50    25    48    1
    51    26    49    1
    52    26    50    1
@<TRIPOS>SUBSTRUCTURE
     1 ZINC000942661662        1 TEMP              0 ****  ****    0 ROOT


##########                                Name:    ZINC001318556452
##########                DOCK_Rotatable_Bonds:                   4
##########                         Heavy_Atoms:                  26
##########                    Molecular_Weight:             368.456
##########                DOCK_Rotatable_Bonds:                   4
##########                       Formal_Charge:          -0.0200005
##########                     HBond_Acceptors:                   6
##########                        HBond_Donors:                   1
##########                         Heavy_Atoms:                  26
##########                          Grid_Score:          -24.772339
##########                     Grid_vdw_energy:          -23.743607
##########                      Grid_es_energy:           -1.028733
##########           Internal_energy_repulsive:           30.553249

@<TRIPOS>MOLECULE
ZINC001318556452
 46 48 1 0 0
SMALL
USER_CHARGES


@<TRIPOS>ATOM
      1 C1         -8.0455    2.2861   55.6903 C.3     1  ZINC001318556452   -0.1300
      2 C2         -8.5174    1.0431   54.9809 C.ar    1  ZINC001318556452   -0.1000
      3 C3         -7.9225    0.6548   53.7969 C.ar    1  ZINC001318556452   -0.0500
      4 C4         -6.8007    1.4752   53.2139 C.3     1  ZINC001318556452   -0.4100
      5 S5         -5.6204    0.3792   52.3797 S.o     1  ZINC001318556452    1.2500
      6 C6         -4.3661    1.5307   51.7541 C.3     1  ZINC001318556452   -0.4900
      7 O7         -6.2615   -0.2628   51.2860 O.2     1  ZINC001318556452   -0.8400
      8 C8         -8.3544   -0.4863   53.1457 C.ar    1  ZINC001318556452   -0.1200
      9 C9         -9.3836   -1.2415   53.6770 C.ar    1  ZINC001318556452   -0.1000
     10 C10        -9.9838   -0.8583   54.8605 C.ar    1  ZINC001318556452   -0.1200
     11 C11        -9.5480    0.2834   55.5204 C.ar    1  ZINC001318556452    0.1400
     12 N12       -10.1529    0.6739   56.7187 N.am    1  ZINC001318556452   -0.6600
     13 C13        -9.8073    0.0738   57.8749 C.2     1  ZINC001318556452    0.5600
     14 O14        -8.9698   -0.8065   57.8758 O.2     1  ZINC001318556452   -0.5000
     15 C15       -10.4489    0.4879   59.1458 C.2     1  ZINC001318556452   -0.0300
     16 C16       -11.7727    0.2404   59.3725 C.2     1  ZINC001318556452   -0.1600
     17 C17       -12.3762    0.6602   60.6350 C.2     1  ZINC001318556452    0.5300
     18 O18       -13.5571    0.4399   60.8379 O.2     1  ZINC001318556452   -0.5200
     19 N19       -11.6481    1.2856   61.5762 N.am    1  ZINC001318556452   -0.5200
     20 C20       -12.2902    1.6896   62.8295 C.3     1  ZINC001318556452    0.0600
     21 C21       -10.3094    1.5538   61.3863 C.ar    1  ZINC001318556452    0.1800
     22 C22        -9.5729    2.2026   62.3739 C.ar    1  ZINC001318556452   -0.1700
     23 C23        -8.2355    2.4646   62.1709 C.ar    1  ZINC001318556452   -0.0600
     24 C24        -7.6125    2.0876   60.9892 C.ar    1  ZINC001318556452   -0.1500
     25 C25        -8.3158    1.4500   60.0066 C.ar    1  ZINC001318556452   -0.0600
     26 C26        -9.6722    1.1689   60.1931 C.ar    1  ZINC001318556452   -0.1100
     27 H27        -7.2459    2.0269   56.3842 H       1  ZINC001318556452    0.0800
     28 H28        -7.6732    3.0029   54.9584 H       1  ZINC001318556452    0.0800
     29 H29        -8.8759    2.7276   56.2413 H       1  ZINC001318556452    0.0700
     30 H30        -7.2067    2.1867   52.4948 H       1  ZINC001318556452    0.1000
     31 H31        -6.2927    2.0157   54.0126 H       1  ZINC001318556452    0.1300
     32 H32        -3.9190    2.0698   52.5893 H       1  ZINC001318556452    0.1100
     33 H33        -3.5926    0.9734   51.2256 H       1  ZINC001318556452    0.1100
     34 H34        -4.8330    2.2408   51.0715 H       1  ZINC001318556452    0.0800
     35 H35        -7.8871   -0.7880   52.2200 H       1  ZINC001318556452    0.1200
     36 H36        -9.7188   -2.1319   53.1658 H       1  ZINC001318556452    0.1300
     37 H37       -10.7878   -1.4485   55.2747 H       1  ZINC001318556452    0.1500
     38 H38       -10.8215    1.3767   56.7180 H       1  ZINC001318556452    0.4100
     39 H39       -12.3687   -0.2612   58.6244 H       1  ZINC001318556452    0.1600
     40 H40       -13.3410    1.4010   62.8089 H       1  ZINC001318556452    0.1000
     41 H41       -11.7946    1.1982   63.6666 H       1  ZINC001318556452    0.0800
     42 H42       -12.2127    2.7708   62.9453 H       1  ZINC001318556452    0.0800
     43 H43       -10.0489    2.5001   63.2967 H       1  ZINC001318556452    0.1400
     44 H44        -7.6666    2.9683   62.9384 H       1  ZINC001318556452    0.1300
     45 H45        -6.5635    2.3005   60.8451 H       1  ZINC001318556452    0.1300
     46 H46        -7.8239    1.1599   59.0900 H       1  ZINC001318556452    0.1700
@<TRIPOS>BOND
     1     1     2    1
     2     1    27    1
     3     1    28    1
     4     1    29    1
     5     2    11   ar
     6     2     3   ar
     7     3     4    1
     8     3     8   ar
     9     4     5    1
    10     4    30    1
    11     4    31    1
    12     5     6    1
    13     5     7    2
    14     6    32    1
    15     6    33    1
    16     6    34    1
    17     8     9   ar
    18     8    35    1
    19     9    10   ar
    20     9    36    1
    21    10    11   ar
    22    10    37    1
    23    11    12    1
    24    12    13   am
    25    12    38    1
    26    13    14    2
    27    13    15    1
    28    15    26    1
    29    15    16    2
    30    16    17    1
    31    16    39    1
    32    17    18    2
    33    17    19   am
    34    19    20    1
    35    19    21    1
    36    20    40    1
    37    20    41    1
    38    20    42    1
    39    21    26   ar
    40    21    22   ar
    41    22    23   ar
    42    22    43    1
    43    23    24   ar
    44    23    44    1
    45    24    25   ar
    46    24    45    1
    47    25    26   ar
    48    25    46    1
@<TRIPOS>SUBSTRUCTURE
     1 ZINC001318556452        1 TEMP              0 ****  ****    0 ROOT


##########                                Name:    ZINC000444542200
##########                DOCK_Rotatable_Bonds:                   8
##########                         Heavy_Atoms:                  28
##########                    Molecular_Weight:             404.337
##########                DOCK_Rotatable_Bonds:                   8
##########                       Formal_Charge:           0.0200001
##########                     HBond_Acceptors:                  10
##########                        HBond_Donors:                   1
##########                         Heavy_Atoms:                  28
##########                          Grid_Score:          -24.759022
##########                     Grid_vdw_energy:          -24.672745
##########                      Grid_es_energy:           -0.086277
##########           Internal_energy_repulsive:           19.442265

@<TRIPOS>MOLECULE
ZINC000444542200
 45 46 1 0 0
SMALL
USER_CHARGES


@<TRIPOS>ATOM
      1 C1        -11.9394    1.5947   61.7417 C.3     1  ZINC000444542200    0.0300
      2 O2        -12.3239    0.3638   61.1259 O.3     1  ZINC000444542200   -0.3100
      3 C3        -11.4318   -0.2041   60.2724 C.ar    1  ZINC000444542200    0.1800
      4 C4        -10.2044    0.4009   60.0492 C.ar    1  ZINC000444542200   -0.1700
      5 C5         -9.2931   -0.1796   59.1778 C.ar    1  ZINC000444542200    0.2300
      6 N6         -8.0539    0.4303   58.9525 N.am    1  ZINC000444542200   -0.5800
      7 C7         -6.9741    0.2785   59.9309 C.3     1  ZINC000444542200    0.0700
      8 C8         -7.8538    1.1572   57.8354 C.2     1  ZINC000444542200    0.7100
      9 O9         -6.7771    1.6873   57.6397 O.2     1  ZINC000444542200   -0.5500
     10 N10        -8.8471    1.2967   56.9353 N.am    1  ZINC000444542200   -0.7300
     11 C11        -8.6290    2.0854   55.7200 C.3     1  ZINC000444542200    0.1700
     12 H12        -7.8654    2.8400   55.9088 H       1  ZINC000444542200    0.1500
     13 C13        -8.1736    1.1774   54.6069 C.ar    1  ZINC000444542200   -0.1300
     14 C14        -8.8843    0.0276   54.3184 C.ar    1  ZINC000444542200   -0.0800
     15 C15        -8.4677   -0.8065   53.2976 C.ar    1  ZINC000444542200   -0.0900
     16 C16        -7.3398   -0.4923   52.5632 C.ar    1  ZINC000444542200   -0.1100
     17 C17        -6.6258    0.6584   52.8495 C.ar    1  ZINC000444542200    0.0800
     18 F18        -5.5232    0.9662   52.1322 F       1  ZINC000444542200   -0.1200
     19 C19        -7.0468    1.4978   53.8696 C.ar    1  ZINC000444542200    0.1000
     20 F20        -6.3516    2.6215   54.1509 F       1  ZINC000444542200   -0.1100
     21 C21        -9.9355    2.7717   55.3162 C.3     1  ZINC000444542200    0.4400
     22 F22       -10.1783    2.5493   53.9565 F       1  ZINC000444542200   -0.1600
     23 F23       -10.9904    2.2466   56.0703 F       1  ZINC000444542200   -0.1700
     24 F24        -9.8325    4.1467   55.5527 F       1  ZINC000444542200   -0.1800
     25 C25        -9.6113   -1.3655   58.5304 C.ar    1  ZINC000444542200   -0.1900
     26 C26       -10.8391   -1.9694   58.7544 C.ar    1  ZINC000444542200    0.1800
     27 O27       -11.1508   -3.1304   58.1207 O.3     1  ZINC000444542200   -0.3100
     28 C28       -10.2157   -3.6132   57.1540 C.3     1  ZINC000444542200    0.0300
     29 C29       -11.7470   -1.3917   59.6292 C.ar    1  ZINC000444542200   -0.2900
     30 H30       -11.0323    1.4407   62.3261 H       1  ZINC000444542200    0.0600
     31 H31       -11.7530    2.3435   60.9718 H       1  ZINC000444542200    0.0600
     32 H32       -12.7397    1.9387   62.3969 H       1  ZINC000444542200    0.1000
     33 H33        -9.9576    1.3237   60.5531 H       1  ZINC000444542200    0.1300
     34 H34        -6.3808   -0.6018   59.6836 H       1  ZINC000444542200    0.0700
     35 H35        -6.3378    1.1633   59.9099 H       1  ZINC000444542200    0.0700
     36 H36        -7.4005    0.1612   60.9272 H       1  ZINC000444542200    0.0900
     37 H37        -9.7064    0.8749   57.0919 H       1  ZINC000444542200    0.4100
     38 H38        -9.7657   -0.2197   54.8914 H       1  ZINC000444542200    0.1400
     39 H39        -9.0241   -1.7046   53.0739 H       1  ZINC000444542200    0.1500
     40 H40        -7.0152   -1.1449   51.7662 H       1  ZINC000444542200    0.1500
     41 H41        -8.9029   -1.8174   57.8519 H       1  ZINC000444542200    0.1400
     42 H42        -9.2544   -3.7915   57.6359 H       1  ZINC000444542200    0.0600
     43 H43       -10.5851   -4.5445   56.7246 H       1  ZINC000444542200    0.1000
     44 H44       -10.0942   -2.8719   56.3642 H       1  ZINC000444542200    0.0600
     45 H45       -12.7033   -1.8625   59.8034 H       1  ZINC000444542200    0.1400
@<TRIPOS>BOND
     1     1     2    1
     2     1    30    1
     3     1    31    1
     4     1    32    1
     5     2     3    1
     6     3    29   ar
     7     3     4   ar
     8     4     5   ar
     9     4    33    1
    10     5     6    1
    11     5    25   ar
    12     6     7    1
    13     6     8   am
    14     7    34    1
    15     7    35    1
    16     7    36    1
    17     8     9    2
    18     8    10   am
    19    10    11    1
    20    10    37    1
    21    11    12    1
    22    11    13    1
    23    11    21    1
    24    13    19   ar
    25    13    14   ar
    26    14    15   ar
    27    14    38    1
    28    15    16   ar
    29    15    39    1
    30    16    17   ar
    31    16    40    1
    32    17    18    1
    33    17    19   ar
    34    19    20    1
    35    21    22    1
    36    21    23    1
    37    21    24    1
    38    25    26   ar
    39    25    41    1
    40    26    27    1
    41    26    29   ar
    42    27    28    1
    43    28    42    1
    44    28    43    1
    45    28    44    1
    46    29    45    1
@<TRIPOS>SUBSTRUCTURE
     1 ZINC000444542200        1 TEMP              0 ****  ****    0 ROOT


##########                                Name:    ZINC000794876634
##########                DOCK_Rotatable_Bonds:                   4
##########                         Heavy_Atoms:                  24
##########                    Molecular_Weight:             389.249
##########                DOCK_Rotatable_Bonds:                   4
##########                       Formal_Charge:        -4.47035e-08
##########                     HBond_Acceptors:                   5
##########                        HBond_Donors:                   0
##########                         Heavy_Atoms:                  24
##########                          Grid_Score:          -24.756855
##########                     Grid_vdw_energy:          -23.795799
##########                      Grid_es_energy:           -0.961056
##########           Internal_energy_repulsive:           56.013981

@<TRIPOS>MOLECULE
ZINC000794876634
 41 43 1 0 0
SMALL
USER_CHARGES


@<TRIPOS>ATOM
      1 C1         -5.2494    2.9175   65.3442 C.3     1  ZINC000794876634    0.0200
      2 O2         -6.0884    1.8130   65.6880 O.3     1  ZINC000794876634   -0.3000
      3 C3         -6.9216    1.3476   64.7219 C.ar    1  ZINC000794876634    0.1300
      4 C4         -6.9251    1.9412   63.4663 C.ar    1  ZINC000794876634   -0.1800
      5 C5         -7.7679    1.4745   62.4822 C.ar    1  ZINC000794876634   -0.0400
      6 C6         -7.7686    2.1214   61.1211 C.3     1  ZINC000794876634   -0.1200
      7 C7         -8.6243    0.3976   62.7470 C.ar    1  ZINC000794876634   -0.1000
      8 C8         -9.5223   -0.1019   61.7018 C.2     1  ZINC000794876634    0.0600
      9 C9        -10.8470    0.2262   61.7262 C.2     1  ZINC000794876634   -0.1700
     10 C10       -11.5466    1.0635   62.7157 C.2     1  ZINC000794876634    0.5700
     11 O11       -11.0407    1.6028   63.6828 O.2     1  ZINC000794876634   -0.4900
     12 N12       -12.8413    1.1277   62.3624 N.am    1  ZINC000794876634   -0.5300
     13 C13       -13.8616    1.8728   63.1041 C.3     1  ZINC000794876634    0.0800
     14 C14       -13.0915    0.4016   61.2083 C.ar    1  ZINC000794876634    0.3700
     15 N15       -14.2099    0.1985   60.5231 N.ar    1  ZINC000794876634   -0.4900
     16 C16       -14.2337   -0.5386   59.4311 C.ar    1  ZINC000794876634    0.1800
     17 C17       -13.0893   -1.1415   58.9401 C.ar    1  ZINC000794876634   -0.1800
     18 Br18      -13.1585   -2.1926   57.3697 Br      1  ZINC000794876634   -0.0200
     19 C19       -11.8902   -0.9643   59.6151 C.ar    1  ZINC000794876634    0.0000
     20 C20       -11.8937   -0.1761   60.7611 C.ar    1  ZINC000794876634   -0.1400
     21 C21        -8.6191   -0.2006   64.0149 C.ar    1  ZINC000794876634   -0.1400
     22 C22        -7.7671    0.2711   64.9924 C.ar    1  ZINC000794876634    0.0900
     23 O23        -7.7589   -0.3070   66.2234 O.3     1  ZINC000794876634   -0.3000
     24 C24        -6.8589    0.2383   67.1902 C.3     1  ZINC000794876634    0.0200
     25 H25        -4.6358    3.1888   66.2033 H       1  ZINC000794876634    0.1000
     26 H26        -4.6046    2.6384   64.5108 H       1  ZINC000794876634    0.0600
     27 H27        -5.8678    3.7677   65.0563 H       1  ZINC000794876634    0.0600
     28 H28        -6.2654    2.7713   63.2613 H       1  ZINC000794876634    0.1400
     29 H29        -7.0414    1.6218   60.4810 H       1  ZINC000794876634    0.0800
     30 H30        -8.7612    2.0362   60.6789 H       1  ZINC000794876634    0.0700
     31 H31        -7.5036    3.1742   61.2190 H       1  ZINC000794876634    0.0700
     32 H32        -9.1359   -0.7296   60.9125 H       1  ZINC000794876634    0.1500
     33 H33       -13.4037    2.3533   63.9687 H       1  ZINC000794876634    0.0900
     34 H34       -14.2998    2.6320   62.4562 H       1  ZINC000794876634    0.0800
     35 H35       -14.6402    1.1876   63.4391 H       1  ZINC000794876634    0.0800
     36 H36       -15.1682   -0.6756   58.9074 H       1  ZINC000794876634    0.1800
     37 H37       -10.9792   -1.4217   59.2583 H       1  ZINC000794876634    0.1600
     38 H38        -9.2771   -1.0310   64.2247 H       1  ZINC000794876634    0.1400
     39 H39        -5.8322    0.0813   66.8598 H       1  ZINC000794876634    0.0500
     40 H40        -7.0464    1.3064   67.2993 H       1  ZINC000794876634    0.0600
     41 H41        -7.0119   -0.2572   68.1490 H       1  ZINC000794876634    0.1100
@<TRIPOS>BOND
     1     1     2    1
     2     1    25    1
     3     1    26    1
     4     1    27    1
     5     2     3    1
     6     3    22   ar
     7     3     4   ar
     8     4     5   ar
     9     4    28    1
    10     5     6    1
    11     5     7   ar
    12     6    29    1
    13     6    30    1
    14     6    31    1
    15     7     8    1
    16     7    21   ar
    17     8     9    2
    18     8    32    1
    19     9    20    1
    20     9    10    1
    21    10    11    2
    22    10    12   am
    23    12    13    1
    24    12    14    1
    25    13    33    1
    26    13    34    1
    27    13    35    1
    28    14    20   ar
    29    14    15   ar
    30    15    16   ar
    31    16    17   ar
    32    16    36    1
    33    17    18    1
    34    17    19   ar
    35    19    20   ar
    36    19    37    1
    37    21    22   ar
    38    21    38    1
    39    22    23    1
    40    23    24    1
    41    24    39    1
    42    24    40    1
    43    24    41    1
@<TRIPOS>SUBSTRUCTURE
     1 ZINC000794876634        1 TEMP              0 ****  ****    0 ROOT


##########                                Name:    ZINC000854500114
##########                DOCK_Rotatable_Bonds:                   7
##########                         Heavy_Atoms:                  24
##########                    Molecular_Weight:             399.288
##########                DOCK_Rotatable_Bonds:                   7
##########                       Formal_Charge:          -0.0399992
##########                     HBond_Acceptors:                   7
##########                        HBond_Donors:                   2
##########                         Heavy_Atoms:                  24
##########                          Grid_Score:          -24.745655
##########                     Grid_vdw_energy:          -25.583361
##########                      Grid_es_energy:            0.837705
##########           Internal_energy_repulsive:           74.440987

@<TRIPOS>MOLECULE
ZINC000854500114
 47 49 1 0 0
SMALL
USER_CHARGES


@<TRIPOS>ATOM
      1 O1        -11.5810    0.0708   53.0905 O.2     1  ZINC000854500114   -0.5800
      2 C2        -12.6521   -0.4351   53.3615 C.2     1  ZINC000854500114    0.6600
      3 N3        -13.6973   -0.2900   52.5230 N.am    1  ZINC000854500114   -0.7100
      4 C4        -13.5437    0.4826   51.2877 C.3     1  ZINC000854500114    0.1600
      5 C5        -13.1561   -0.4530   50.1241 C.3     1  ZINC000854500114   -0.1400
      6 C6        -14.5037   -0.7784   49.4332 C.3     1  ZINC000854500114   -0.1300
      7 C7        -15.2646    0.5681   49.5172 C.3     1  ZINC000854500114   -0.1300
      8 C8        -14.8844    1.1318   50.9019 C.3     1  ZINC000854500114   -0.1300
      9 O9        -12.7933   -1.1451   54.4966 O.3     1  ZINC000854500114   -0.3600
     10 C10       -11.7403   -1.0189   55.4883 C.3     1  ZINC000854500114    0.1000
     11 C11       -12.0437   -1.9369   56.6741 C.3     1  ZINC000854500114    0.1500
     12 H12       -11.9724   -2.9776   56.3582 H       1  ZINC000854500114    0.0900
     13 C13       -13.4566   -1.6538   57.1944 C.3     1  ZINC000854500114   -0.1300
     14 C14       -13.7026   -2.4737   58.4629 C.3     1  ZINC000854500114   -0.1200
     15 C15       -12.6989   -2.0609   59.5419 C.3     1  ZINC000854500114   -0.1400
     16 C16       -11.2774   -2.3486   59.0483 C.3     1  ZINC000854500114    0.0900
     17 N17       -11.0796   -1.6826   57.7532 N.am    1  ZINC000854500114   -0.6100
     18 C18       -10.0367   -0.8507   57.5611 C.2     1  ZINC000854500114    0.5900
     19 O19        -9.8840   -0.3056   56.4845 O.2     1  ZINC000854500114   -0.4900
     20 C20        -9.0829   -0.6020   58.6537 C.2     1  ZINC000854500114   -0.0300
     21 C21        -9.2196    0.3127   59.6834 C.2     1  ZINC000854500114   -0.1200
     22 C22        -8.0646    0.1735   60.4576 C.2     1  ZINC000854500114    0.0200
     23 Br23       -7.6476    1.1516   62.0215 Br      1  ZINC000854500114    0.0400
     24 N24        -7.3227   -0.7545   59.9081 N.2     1  ZINC000854500114   -0.2400
     25 N25        -7.8881   -1.2317   58.8582 N.pl3   1  ZINC000854500114   -0.3700
     26 H26       -14.5512   -0.6971   52.7373 H       1  ZINC000854500114    0.4000
     27 H27       -12.7815    1.2504   51.4203 H       1  ZINC000854500114    0.0900
     28 H28       -12.4858    0.0566   49.4319 H       1  ZINC000854500114    0.0800
     29 H29       -12.6928   -1.3634   50.5045 H       1  ZINC000854500114    0.0700
     30 H30       -14.3451   -1.0684   48.3945 H       1  ZINC000854500114    0.0700
     31 H31       -15.0375   -1.5584   49.9759 H       1  ZINC000854500114    0.0700
     32 H32       -14.9348    1.2426   48.7271 H       1  ZINC000854500114    0.0700
     33 H33       -16.3403    0.4028   49.4549 H       1  ZINC000854500114    0.0700
     34 H34       -15.6493    0.8721   51.6337 H       1  ZINC000854500114    0.0700
     35 H35       -14.7725    2.2146   50.8464 H       1  ZINC000854500114    0.0800
     36 H36       -10.7865   -1.3028   55.0437 H       1  ZINC000854500114    0.1000
     37 H37       -11.6875    0.0140   55.8327 H       1  ZINC000854500114    0.0700
     38 H38       -13.5544   -0.5925   57.4225 H       1  ZINC000854500114    0.0800
     39 H39       -14.1867   -1.9318   56.4341 H       1  ZINC000854500114    0.0900
     40 H40       -14.7159   -2.2930   58.8213 H       1  ZINC000854500114    0.0800
     41 H41       -13.5803   -3.5336   58.2397 H       1  ZINC000854500114    0.0700
     42 H42       -12.8038   -0.9957   59.7479 H       1  ZINC000854500114    0.0700
     43 H43       -12.8896   -2.6286   60.4526 H       1  ZINC000854500114    0.0800
     44 H44       -10.5556   -1.9662   59.7701 H       1  ZINC000854500114    0.0800
     45 H45       -11.1429   -3.4235   58.9283 H       1  ZINC000854500114    0.0800
     46 H46       -10.0435    0.9901   59.8524 H       1  ZINC000854500114    0.1700
     47 H47        -7.5199   -1.9288   58.2930 H       1  ZINC000854500114    0.4500
@<TRIPOS>BOND
     1     1     2    2
     2     2     3   am
     3     2     9    1
     4     3     4    1
     5     3    26    1
     6     4     8    1
     7     4     5    1
     8     4    27    1
     9     5     6    1
    10     5    28    1
    11     5    29    1
    12     6     7    1
    13     6    30    1
    14     6    31    1
    15     7     8    1
    16     7    32    1
    17     7    33    1
    18     8    34    1
    19     8    35    1
    20     9    10    1
    21    10    11    1
    22    10    36    1
    23    10    37    1
    24    11    12    1
    25    11    17    1
    26    11    13    1
    27    13    14    1
    28    13    38    1
    29    13    39    1
    30    14    15    1
    31    14    40    1
    32    14    41    1
    33    15    16    1
    34    15    42    1
    35    15    43    1
    36    16    17    1
    37    16    44    1
    38    16    45    1
    39    17    18   am
    40    18    19    2
    41    18    20    1
    42    20    25    1
    43    20    21    2
    44    21    22    1
    45    21    46    1
    46    22    23    1
    47    22    24    2
    48    24    25    1
    49    25    47    1
@<TRIPOS>SUBSTRUCTURE
     1 ZINC000854500114        1 TEMP              0 ****  ****    0 ROOT


##########                                Name:    ZINC001162683355
##########                DOCK_Rotatable_Bonds:                   5
##########                         Heavy_Atoms:                  25
##########                    Molecular_Weight:             336.437
##########                DOCK_Rotatable_Bonds:                   5
##########                       Formal_Charge:          -0.0100002
##########                     HBond_Acceptors:                   5
##########                        HBond_Donors:                   1
##########                         Heavy_Atoms:                  25
##########                          Grid_Score:          -24.739407
##########                     Grid_vdw_energy:          -24.836418
##########                      Grid_es_energy:            0.097012
##########           Internal_energy_repulsive:           10.598545

@<TRIPOS>MOLECULE
ZINC001162683355
 49 52 1 0 0
SMALL
USER_CHARGES


@<TRIPOS>ATOM
      1 C1         -7.5363    0.7537   64.4061 C.3     1  ZINC001162683355    0.0200
      2 N2         -7.9180    0.3510   63.0459 N.3     1  ZINC001162683355   -0.5400
      3 C3         -6.8822    0.7302   62.0740 C.3     1  ZINC001162683355    0.0100
      4 C4         -7.2917    0.2402   60.6826 C.3     1  ZINC001162683355    0.0600
      5 O5         -8.5720    0.7833   60.3491 O.3     1  ZINC001162683355   -0.3800
      6 C6         -9.6047    0.4332   61.2745 C.3     1  ZINC001162683355    0.0800
      7 H7         -9.7275   -0.6498   61.2902 H       1  ZINC001162683355    0.0700
      8 C8        -10.9185    1.0901   60.8464 C.3     1  ZINC001162683355    0.1500
      9 N9        -11.4326    0.4196   59.6496 N.pl3   1  ZINC001162683355   -0.7300
     10 C10       -10.8956    0.7161   58.4018 C.ar    1  ZINC001162683355    0.4300
     11 C11       -10.8233   -0.2753   57.4204 C.ar    1  ZINC001162683355   -0.0100
     12 C12       -10.2745    0.0589   56.1688 C.ar    1  ZINC001162683355   -0.0400
     13 C13        -9.8248    1.3695   55.9595 C.ar    1  ZINC001162683355   -0.1800
     14 C14        -9.9347    2.2737   56.9755 C.ar    1  ZINC001162683355    0.1000
     15 N15       -10.4547    1.9367   58.1459 N.ar    1  ZINC001162683355   -0.5400
     16 C16       -10.3304   -1.1573   55.3634 C.2     1  ZINC001162683355   -0.2200
     17 C17       -10.8770   -2.1141   56.1346 C.2     1  ZINC001162683355    0.0800
     18 N18       -11.1819   -1.6029   57.3638 N.pl3   1  ZINC001162683355   -0.4600
     19 C19       -11.7939   -2.3568   58.4608 C.3     1  ZINC001162683355    0.1500
     20 C20       -13.2661   -2.5316   58.1901 C.ar    1  ZINC001162683355   -0.1100
     21 C21       -14.1604   -1.5492   58.5721 C.ar    1  ZINC001162683355   -0.1000
     22 C22       -15.5104   -1.7076   58.3198 C.ar    1  ZINC001162683355   -0.1200
     23 C23       -15.9669   -2.8524   57.6939 C.ar    1  ZINC001162683355   -0.1100
     24 C24       -15.0731   -3.8372   57.3166 C.ar    1  ZINC001162683355   -0.1200
     25 C25       -13.7227   -3.6768   57.5649 C.ar    1  ZINC001162683355   -0.1000
     26 C26        -9.2186    0.9252   62.6719 C.3     1  ZINC001162683355    0.0300
     27 H27        -7.4719    1.8406   64.4586 H       1  ZINC001162683355    0.0300
     28 H28        -8.2859    0.3996   65.1137 H       1  ZINC001162683355    0.0700
     29 H29        -6.5679    0.3198   64.6553 H       1  ZINC001162683355    0.0700
     30 H30        -5.9336    0.2735   62.3562 H       1  ZINC001162683355    0.0900
     31 H31        -6.7751    1.8149   62.0609 H       1  ZINC001162683355    0.0500
     32 H32        -7.3467   -0.8484   60.6817 H       1  ZINC001162683355    0.0600
     33 H33        -6.5550    0.5681   59.9492 H       1  ZINC001162683355    0.1000
     34 H34       -10.7433    2.1431   60.6259 H       1  ZINC001162683355    0.0700
     35 H35       -11.6473    1.0041   61.6525 H       1  ZINC001162683355    0.0800
     36 H36       -12.1476   -0.2312   59.7278 H       1  ZINC001162683355    0.4000
     37 H37        -9.3989    1.6591   55.0102 H       1  ZINC001162683355    0.1300
     38 H38        -9.5907    3.2858   56.8218 H       1  ZINC001162683355    0.1500
     39 H39        -9.9927   -1.2688   54.3436 H       1  ZINC001162683355    0.1500
     40 H40       -11.0510   -3.1346   55.8268 H       1  ZINC001162683355    0.1700
     41 H41       -11.6585   -1.8128   59.3956 H       1  ZINC001162683355    0.0900
     42 H42       -11.3199   -3.3353   58.5378 H       1  ZINC001162683355    0.0900
     43 H43       -13.8043   -0.6565   59.0645 H       1  ZINC001162683355    0.1200
     44 H44       -16.2087   -0.9381   58.6142 H       1  ZINC001162683355    0.1300
     45 H45       -17.0218   -2.9773   57.4992 H       1  ZINC001162683355    0.1300
     46 H46       -15.4298   -4.7316   56.8275 H       1  ZINC001162683355    0.1300
     47 H47       -13.0244   -4.4462   57.2702 H       1  ZINC001162683355    0.1200
     48 H48        -9.1488    2.0129   62.6684 H       1  ZINC001162683355    0.0500
     49 H49        -9.9755    0.6107   63.3905 H       1  ZINC001162683355    0.0900
@<TRIPOS>BOND
     1     1     2    1
     2     1    27    1
     3     1    28    1
     4     1    29    1
     5     2    26    1
     6     2     3    1
     7     3     4    1
     8     3    30    1
     9     3    31    1
    10     4     5    1
    11     4    32    1
    12     4    33    1
    13     5     6    1
    14     6     7    1
    15     6     8    1
    16     6    26    1
    17     8     9    1
    18     8    34    1
    19     8    35    1
    20     9    10    1
    21     9    36    1
    22    10    15   ar
    23    10    11   ar
    24    11    18    1
    25    11    12   ar
    26    12    13   ar
    27    12    16    1
    28    13    14   ar
    29    13    37    1
    30    14    15   ar
    31    14    38    1
    32    16    17    2
    33    16    39    1
    34    17    18    1
    35    17    40    1
    36    18    19    1
    37    19    20    1
    38    19    41    1
    39    19    42    1
    40    20    25   ar
    41    20    21   ar
    42    21    22   ar
    43    21    43    1
    44    22    23   ar
    45    22    44    1
    46    23    24   ar
    47    23    45    1
    48    24    25   ar
    49    24    46    1
    50    25    47    1
    51    26    48    1
    52    26    49    1
@<TRIPOS>SUBSTRUCTURE
     1 ZINC001162683355        1 TEMP              0 ****  ****    0 ROOT


##########                                Name:    ZINC000130059363
##########                DOCK_Rotatable_Bonds:                   4
##########                         Heavy_Atoms:                  29
##########                    Molecular_Weight:             389.497
##########                DOCK_Rotatable_Bonds:                   4
##########                       Formal_Charge:          -0.0100003
##########                     HBond_Acceptors:                   5
##########                        HBond_Donors:                   0
##########                         Heavy_Atoms:                  29
##########                          Grid_Score:          -24.698696
##########                     Grid_vdw_energy:          -21.949265
##########                      Grid_es_energy:           -2.749431
##########           Internal_energy_repulsive:           28.633253

@<TRIPOS>MOLECULE
ZINC000130059363
 56 60 1 0 0
SMALL
USER_CHARGES


@<TRIPOS>ATOM
      1 C1         -9.4955   -1.9471   57.5086 C.3     1  ZINC000130059363   -0.1200
      2 C2         -9.5950   -0.7233   58.3823 C.ar    1  ZINC000130059363    0.1900
      3 N3         -8.6082    0.1456   58.3998 N.ar    1  ZINC000130059363   -0.4800
      4 C4         -8.6518    1.2381   59.1535 C.ar    1  ZINC000130059363    0.2000
      5 C5         -7.5118    2.1853   59.1353 C.ar    1  ZINC000130059363   -0.0600
      6 C6         -6.3556    1.8752   58.4204 C.ar    1  ZINC000130059363   -0.1000
      7 C7         -5.2977    2.7612   58.4068 C.ar    1  ZINC000130059363   -0.1200
      8 C8         -5.3826    3.9548   59.1010 C.ar    1  ZINC000130059363   -0.1000
      9 C9         -6.5270    4.2676   59.8125 C.ar    1  ZINC000130059363   -0.1300
     10 C10        -7.5937    3.3923   59.8284 C.ar    1  ZINC000130059363   -0.0700
     11 C11        -9.7565    1.5060   59.9616 C.ar    1  ZINC000130059363   -0.1800
     12 C12       -10.8146    0.6189   59.9726 C.ar    1  ZINC000130059363   -0.0400
     13 C13       -10.7368   -0.5209   59.1607 C.ar    1  ZINC000130059363   -0.1900
     14 C14       -11.8426   -1.4999   59.1367 C.2     1  ZINC000130059363    0.5700
     15 O15       -11.7584   -2.5280   59.7801 O.2     1  ZINC000130059363   -0.5200
     16 N16       -12.9449   -1.2535   58.4014 N.am    1  ZINC000130059363   -0.6000
     17 C17       -13.0615   -0.0187   57.6125 C.3     1  ZINC000130059363    0.1000
     18 C18       -13.3601   -0.3993   56.1593 C.3     1  ZINC000130059363   -0.1500
     19 C19       -14.5887   -1.3001   56.1023 C.3     1  ZINC000130059363    0.1500
     20 H20       -14.7536   -1.5837   55.0628 H       1  ZINC000130059363    0.0700
     21 C21       -14.3675   -2.5751   56.9137 C.3     1  ZINC000130059363   -0.1100
     22 H22       -13.5548   -3.1580   56.4803 H       1  ZINC000130059363    0.1000
     23 C23       -15.6721   -3.3873   56.8871 C.3     1  ZINC000130059363   -0.1200
     24 C24       -16.7304   -2.6181   57.6819 C.3     1  ZINC000130059363   -0.1400
     25 C25       -16.7615   -1.1810   57.2481 C.2     1  ZINC000130059363    0.5200
     26 O26       -17.7321   -0.5145   57.5390 O.2     1  ZINC000130059363   -0.5400
     27 N27       -15.7742   -0.6025   56.5748 N.am    1  ZINC000130059363   -0.5700
     28 C28       -15.8936    0.8232   56.2593 C.3     1  ZINC000130059363    0.0700
     29 C29       -15.7603    1.2355   54.7920 C.3     1  ZINC000130059363   -0.1800
     30 C30       -17.1286    1.2722   55.4755 C.3     1  ZINC000130059363   -0.1600
     31 C31       -14.0536   -2.2151   58.3656 C.3     1  ZINC000130059363    0.1100
     32 H32        -9.9983   -1.7581   56.5601 H       1  ZINC000130059363    0.0800
     33 H33        -8.4462   -2.1773   57.3239 H       1  ZINC000130059363    0.0800
     34 H34        -9.9699   -2.7908   58.0097 H       1  ZINC000130059363    0.1000
     35 H35        -6.2879    0.9434   57.8786 H       1  ZINC000130059363    0.1300
     36 H36        -4.4017    2.5222   57.8533 H       1  ZINC000130059363    0.1300
     37 H37        -4.5520    4.6450   59.0878 H       1  ZINC000130059363    0.1300
     38 H38        -6.5874    5.2008   60.3528 H       1  ZINC000130059363    0.1300
     39 H39        -8.4867    3.6376   60.3842 H       1  ZINC000130059363    0.1400
     40 H40        -9.7838    2.3967   60.5719 H       1  ZINC000130059363    0.1400
     41 H41       -11.6826    0.8008   60.5890 H       1  ZINC000130059363    0.1400
     42 H42       -13.8735    0.5929   58.0059 H       1  ZINC000130059363    0.0700
     43 H43       -12.1255    0.5378   57.6612 H       1  ZINC000130059363    0.0900
     44 H44       -13.5463    0.5045   55.5791 H       1  ZINC000130059363    0.0900
     45 H45       -12.5038   -0.9275   55.7399 H       1  ZINC000130059363    0.0800
     46 H46       -16.0056   -3.5138   55.8572 H       1  ZINC000130059363    0.0800
     47 H47       -15.5070   -4.3633   57.3434 H       1  ZINC000130059363    0.0900
     48 H48       -17.7082   -3.0682   57.5108 H       1  ZINC000130059363    0.1000
     49 H49       -16.4924   -2.6697   58.7442 H       1  ZINC000130059363    0.1000
     50 H50       -15.4996    1.5059   57.0121 H       1  ZINC000130059363    0.1100
     51 H51       -15.2783    2.1898   54.5792 H       1  ZINC000130059363    0.1100
     52 H52       -15.5836    0.4462   54.0614 H       1  ZINC000130059363    0.1000
     53 H53       -17.8521    0.5069   55.1948 H       1  ZINC000130059363    0.1000
     54 H54       -17.5468    2.2505   55.7125 H       1  ZINC000130059363    0.1000
     55 H55       -13.7741   -3.1158   58.9120 H       1  ZINC000130059363    0.1000
     56 H56       -14.9327   -1.7657   58.8276 H       1  ZINC000130059363    0.0700
@<TRIPOS>BOND
     1     1     2    1
     2     1    32    1
     3     1    33    1
     4     1    34    1
     5     2    13   ar
     6     2     3   ar
     7     3     4   ar
     8     4     5    1
     9     4    11   ar
    10     5    10   ar
    11     5     6   ar
    12     6     7   ar
    13     6    35    1
    14     7     8   ar
    15     7    36    1
    16     8     9   ar
    17     8    37    1
    18     9    10   ar
    19     9    38    1
    20    10    39    1
    21    11    12   ar
    22    11    40    1
    23    12    13   ar
    24    12    41    1
    25    13    14    1
    26    14    15    2
    27    14    16   am
    28    16    31    1
    29    16    17    1
    30    17    18    1
    31    17    42    1
    32    17    43    1
    33    18    19    1
    34    18    44    1
    35    18    45    1
    36    19    20    1
    37    19    27    1
    38    19    21    1
    39    21    22    1
    40    21    23    1
    41    21    31    1
    42    23    24    1
    43    23    46    1
    44    23    47    1
    45    24    25    1
    46    24    48    1
    47    24    49    1
    48    25    26    2
    49    25    27   am
    50    27    28    1
    51    28    30    1
    52    28    29    1
    53    28    50    1
    54    29    30    1
    55    29    51    1
    56    29    52    1
    57    30    53    1
    58    30    54    1
    59    31    55    1
    60    31    56    1
@<TRIPOS>SUBSTRUCTURE
     1 ZINC000130059363        1 TEMP              0 ****  ****    0 ROOT


##########                                Name:    ZINC000942890482
##########                DOCK_Rotatable_Bonds:                   8
##########                         Heavy_Atoms:                  25
##########                    Molecular_Weight:             346.445
##########                DOCK_Rotatable_Bonds:                   8
##########                       Formal_Charge:          -0.0100004
##########                     HBond_Acceptors:                   5
##########                        HBond_Donors:                   0
##########                         Heavy_Atoms:                  25
##########                          Grid_Score:          -24.697960
##########                     Grid_vdw_energy:          -23.535416
##########                      Grid_es_energy:           -1.162544
##########           Internal_energy_repulsive:           23.354055

@<TRIPOS>MOLECULE
ZINC000942890482
 52 54 1 0 0
SMALL
USER_CHARGES


@<TRIPOS>ATOM
      1 C1         -8.3581    1.7125   61.0208 C.3     1  ZINC000942890482   -0.1700
      2 C2         -9.1137    0.3822   60.9989 C.3     1  ZINC000942890482    0.1000
      3 N3         -9.5276    0.0782   59.6269 N.am    1  ZINC000942890482   -0.6000
      4 C4         -8.6307   -0.4036   58.7436 C.2     1  ZINC000942890482    0.5700
      5 O5         -7.4784   -0.5858   59.0856 O.2     1  ZINC000942890482   -0.5100
      6 C6         -9.0479   -0.7102   57.3601 C.ar    1  ZINC000942890482   -0.1400
      7 C7         -9.6226   -1.9467   57.0593 C.ar    1  ZINC000942890482   -0.0600
      8 C8        -10.0107   -2.2274   55.7666 C.ar    1  ZINC000942890482   -0.1600
      9 C9         -9.8311   -1.2847   54.7661 C.ar    1  ZINC000942890482    0.1300
     10 F10       -10.2131   -1.5649   53.5008 F       1  ZINC000942890482   -0.1300
     11 C11        -9.2612   -0.0550   55.0594 C.ar    1  ZINC000942890482   -0.1600
     12 C12        -8.8741    0.2379   56.3493 C.ar    1  ZINC000942890482   -0.0100
     13 C13        -8.2550    1.5746   56.6667 C.3     1  ZINC000942890482   -0.1200
     14 C14       -10.9162    0.2979   59.2149 C.3     1  ZINC000942890482    0.1400
     15 H15       -11.0146    0.2344   58.1312 H       1  ZINC000942890482    0.1100
     16 C16       -11.4442    1.6580   59.7426 C.3     1  ZINC000942890482   -0.1500
     17 C17       -12.9668    1.4243   59.8376 C.3     1  ZINC000942890482    0.1100
     18 N18       -13.1807   -0.0275   59.9278 N.am    1  ZINC000942890482   -0.6200
     19 C19       -14.3778   -0.6418   60.0048 C.2     1  ZINC000942890482    0.5300
     20 O20       -15.3976    0.0146   60.0022 O.2     1  ZINC000942890482   -0.5400
     21 C21       -14.4493   -2.1445   60.0943 C.3     1  ZINC000942890482   -0.1300
     22 C22       -14.6092   -2.7320   58.6907 C.3     1  ZINC000942890482   -0.0700
     23 C23       -15.9107   -2.2211   58.0693 C.3     1  ZINC000942890482   -0.1600
     24 C24       -15.7998   -1.3268   56.8329 C.3     1  ZINC000942890482   -0.1800
     25 C25       -16.2984   -2.7666   56.6934 C.3     1  ZINC000942890482   -0.1800
     26 C26       -11.8687   -0.7009   59.9184 C.3     1  ZINC000942890482    0.0900
     27 H27        -7.4772    1.6405   60.3830 H       1  ZINC000942890482    0.0600
     28 H28        -9.0088    2.5060   60.6532 H       1  ZINC000942890482    0.0600
     29 H29        -8.0502    1.9387   62.0416 H       1  ZINC000942890482    0.0700
     30 H30        -8.4630   -0.4112   61.3664 H       1  ZINC000942890482    0.0900
     31 H31        -9.9947    0.4542   61.6367 H       1  ZINC000942890482    0.0900
     32 H32        -9.7627   -2.6819   57.8380 H       1  ZINC000942890482    0.1400
     33 H33       -10.4550   -3.1836   55.5327 H       1  ZINC000942890482    0.1400
     34 H34        -9.1235    0.6759   54.2762 H       1  ZINC000942890482    0.1400
     35 H35        -9.0424    2.3018   56.8653 H       1  ZINC000942890482    0.0900
     36 H36        -7.6174    1.4803   57.5456 H       1  ZINC000942890482    0.0700
     37 H37        -7.6574    1.9088   55.8184 H       1  ZINC000942890482    0.0700
     38 H38       -11.0260    1.8793   60.7246 H       1  ZINC000942890482    0.1000
     39 H39       -11.2203    2.4585   59.0375 H       1  ZINC000942890482    0.0900
     40 H40       -13.3621    1.9132   60.7279 H       1  ZINC000942890482    0.0700
     41 H41       -13.4583    1.8168   58.9474 H       1  ZINC000942890482    0.0700
     42 H42       -13.5330   -2.5255   60.5454 H       1  ZINC000942890482    0.0900
     43 H43       -15.3031   -2.4318   60.7079 H       1  ZINC000942890482    0.0900
     44 H44       -13.7662   -2.4266   58.0708 H       1  ZINC000942890482    0.0700
     45 H45       -14.6390   -3.8197   58.7533 H       1  ZINC000942890482    0.0700
     46 H46       -16.7164   -2.0104   58.7726 H       1  ZINC000942890482    0.1000
     47 H47       -16.5326   -0.5275   56.7225 H       1  ZINC000942890482    0.0900
     48 H48       -14.7996   -1.1025   56.4620 H       1  ZINC000942890482    0.0900
     49 H49       -15.6263   -3.4894   56.2309 H       1  ZINC000942890482    0.0900
     50 H50       -17.3592   -2.9144   56.4914 H       1  ZINC000942890482    0.0900
     51 H51       -11.9248   -1.6332   59.3566 H       1  ZINC000942890482    0.0800
     52 H52       -11.5324   -0.8908   60.9377 H       1  ZINC000942890482    0.0900
@<TRIPOS>BOND
     1     1     2    1
     2     1    27    1
     3     1    28    1
     4     1    29    1
     5     2     3    1
     6     2    30    1
     7     2    31    1
     8     3     4   am
     9     3    14    1
    10     4     5    2
    11     4     6    1
    12     6    12   ar
    13     6     7   ar
    14     7     8   ar
    15     7    32    1
    16     8     9   ar
    17     8    33    1
    18     9    10    1
    19     9    11   ar
    20    11    12   ar
    21    11    34    1
    22    12    13    1
    23    13    35    1
    24    13    36    1
    25    13    37    1
    26    14    15    1
    27    14    26    1
    28    14    16    1
    29    16    17    1
    30    16    38    1
    31    16    39    1
    32    17    18    1
    33    17    40    1
    34    17    41    1
    35    18    19   am
    36    18    26    1
    37    19    20    2
    38    19    21    1
    39    21    22    1
    40    21    42    1
    41    21    43    1
    42    22    23    1
    43    22    44    1
    44    22    45    1
    45    23    25    1
    46    23    24    1
    47    23    46    1
    48    24    25    1
    49    24    47    1
    50    24    48    1
    51    25    49    1
    52    25    50    1
    53    26    51    1
    54    26    52    1
@<TRIPOS>SUBSTRUCTURE
     1 ZINC000942890482        1 TEMP              0 ****  ****    0 ROOT


##########                                Name:    ZINC000345028113
##########                DOCK_Rotatable_Bonds:                   5
##########                         Heavy_Atoms:                  21
##########                    Molecular_Weight:             331.838
##########                DOCK_Rotatable_Bonds:                   5
##########                       Formal_Charge:         4.47035e-07
##########                     HBond_Acceptors:                   6
##########                        HBond_Donors:                   0
##########                         Heavy_Atoms:                  21
##########                          Grid_Score:          -24.690466
##########                     Grid_vdw_energy:          -24.285295
##########                      Grid_es_energy:           -0.405171
##########           Internal_energy_repulsive:           35.256683

@<TRIPOS>MOLECULE
ZINC000345028113
 40 41 1 0 0
SMALL
USER_CHARGES


@<TRIPOS>ATOM
      1 C1         -0.0305    2.5345   56.3572 C.3     1  ZINC000345028113   -0.1700
      2 C2         -0.1245    3.5817   55.2456 C.3     1  ZINC000345028113    0.1400
      3 H3          0.4983    3.2760   54.4050 H       1  ZINC000345028113    0.1100
      4 C4          0.3618    4.9346   55.7762 C.3     1  ZINC000345028113   -0.0700
      5 H5          0.3316    5.6733   54.9754 H       1  ZINC000345028113    0.0900
      6 C6          1.7951    4.7974   56.2936 C.3     1  ZINC000345028113   -0.1400
      7 S7         -0.7306    5.4594   57.1305 S.3     1  ZINC000345028113   -0.2400
      8 C8         -2.3719    5.3911   56.3530 C.3     1  ZINC000345028113   -0.1100
      9 C9         -2.5814    3.9920   55.7641 C.3     1  ZINC000345028113    0.1000
     10 N10        -1.5150    3.7015   54.8044 N.am    1  ZINC000345028113   -0.6100
     11 C11        -1.8167    3.5425   53.5005 C.2     1  ZINC000345028113    0.5200
     12 O12        -0.9379    3.3031   52.6997 O.2     1  ZINC000345028113   -0.5300
     13 C13        -3.2458    3.6622   53.0377 C.3     1  ZINC000345028113   -0.1400
     14 C14        -3.4761    2.7297   51.8468 C.3     1  ZINC000345028113    0.0700
     15 O15        -4.8179    2.8780   51.3782 O.3     1  ZINC000345028113   -0.3000
     16 C16        -5.7762    2.1480   52.0087 C.ar    1  ZINC000345028113    0.1300
     17 C17        -5.7792    0.7658   51.9003 C.ar    1  ZINC000345028113   -0.1700
     18 C18        -6.7535    0.0249   52.5421 C.ar    1  ZINC000345028113   -0.1100
     19 C19        -7.7264    0.6617   53.2931 C.ar    1  ZINC000345028113    0.0800
     20 F20        -8.6776   -0.0644   53.9201 F       1  ZINC000345028113   -0.1300
     21 C21        -7.7253    2.0421   53.4028 C.ar    1  ZINC000345028113   -0.1100
     22 C22        -6.7492    2.7856   52.7665 C.ar    1  ZINC000345028113   -0.0400
     23 Cl23       -6.7477    4.5161   52.9039 Cl      1  ZINC000345028113   -0.0400
     24 H24        -0.3763    1.5721   55.9798 H       1  ZINC000345028113    0.0600
     25 H25         1.0049    2.4453   56.6857 H       1  ZINC000345028113    0.0800
     26 H26        -0.6534    2.8401   57.1979 H       1  ZINC000345028113    0.0800
     27 H27         2.4450    4.4720   55.4812 H       1  ZINC000345028113    0.0800
     28 H28         2.1391    5.7607   56.6704 H       1  ZINC000345028113    0.0700
     29 H29         1.8223    4.0619   57.0975 H       1  ZINC000345028113    0.0700
     30 H30        -3.1391    5.5912   57.1010 H       1  ZINC000345028113    0.1200
     31 H31        -2.4309    6.1346   55.5582 H       1  ZINC000345028113    0.0900
     32 H32        -2.5600    3.2535   56.5655 H       1  ZINC000345028113    0.0900
     33 H33        -3.5462    3.9514   55.2584 H       1  ZINC000345028113    0.1000
     34 H34        -3.9158    3.3844   53.8515 H       1  ZINC000345028113    0.1100
     35 H35        -3.4457    4.6909   52.7377 H       1  ZINC000345028113    0.1100
     36 H36        -2.7814    2.9844   51.0463 H       1  ZINC000345028113    0.0800
     37 H37        -3.3112    1.6976   52.1562 H       1  ZINC000345028113    0.0800
     38 H38        -5.0207    0.2683   51.3143 H       1  ZINC000345028113    0.1500
     39 H39        -6.7560   -1.0518   52.4573 H       1  ZINC000345028113    0.1500
     40 H40        -8.4852    2.5377   53.9889 H       1  ZINC000345028113    0.1500
@<TRIPOS>BOND
     1     1     2    1
     2     1    24    1
     3     1    25    1
     4     1    26    1
     5     2     3    1
     6     2    10    1
     7     2     4    1
     8     4     5    1
     9     4     6    1
    10     4     7    1
    11     6    27    1
    12     6    28    1
    13     6    29    1
    14     7     8    1
    15     8     9    1
    16     8    30    1
    17     8    31    1
    18     9    10    1
    19     9    32    1
    20     9    33    1
    21    10    11   am
    22    11    12    2
    23    11    13    1
    24    13    14    1
    25    13    34    1
    26    13    35    1
    27    14    15    1
    28    14    36    1
    29    14    37    1
    30    15    16    1
    31    16    22   ar
    32    16    17   ar
    33    17    18   ar
    34    17    38    1
    35    18    19   ar
    36    18    39    1
    37    19    20    1
    38    19    21   ar
    39    21    22   ar
    40    21    40    1
    41    22    23    1
@<TRIPOS>SUBSTRUCTURE
     1 ZINC000345028113        1 TEMP              0 ****  ****    0 ROOT


##########                                Name:    ZINC000928803822
##########                DOCK_Rotatable_Bonds:                   7
##########                         Heavy_Atoms:                  21
##########                    Molecular_Weight:             364.165
##########                DOCK_Rotatable_Bonds:                   7
##########                       Formal_Charge:         -0.00999978
##########                     HBond_Acceptors:                   7
##########                        HBond_Donors:                   1
##########                         Heavy_Atoms:                  21
##########                          Grid_Score:          -24.679344
##########                     Grid_vdw_energy:          -24.902651
##########                      Grid_es_energy:            0.223307
##########           Internal_energy_repulsive:            8.375071

@<TRIPOS>MOLECULE
ZINC000928803822
 34 34 1 0 0
SMALL
USER_CHARGES


@<TRIPOS>ATOM
      1 C1         -2.9205    3.3838   53.0658 C.3     1  ZINC000928803822    0.0900
      2 N2         -3.7937    2.6542   52.1429 N.pl3   1  ZINC000928803822   -0.6300
      3 C3         -3.2206    1.9583   50.9882 C.3     1  ZINC000928803822    0.0900
      4 C4         -5.1727    2.6222   52.3642 C.ar    1  ZINC000928803822    0.2200
      5 C5         -5.9087    3.8006   52.3340 C.ar    1  ZINC000928803822   -0.1500
      6 C6         -7.2745    3.7740   52.5524 C.ar    1  ZINC000928803822   -0.0500
      7 Br7        -8.2674    5.3827   52.5087 Br      1  ZINC000928803822   -0.0400
      8 C8         -7.9149    2.5764   52.8019 C.ar    1  ZINC000928803822   -0.1200
      9 C9         -7.1839    1.3876   52.8342 C.ar    1  ZINC000928803822   -0.0800
     10 C10        -7.8673    0.1038   53.1011 C.2     1  ZINC000928803822    0.5700
     11 O11        -7.4970   -0.9098   52.5414 O.2     1  ZINC000928803822   -0.5100
     12 N12        -8.9007    0.0573   53.9650 N.am    1  ZINC000928803822   -0.7200
     13 C13        -9.5789   -1.2143   54.2282 C.3     1  ZINC000928803822    0.1100
     14 H14        -8.8597   -2.0305   54.1601 H       1  ZINC000928803822    0.1400
     15 C15       -10.6878   -1.4242   53.1951 C.3     1  ZINC000928803822   -0.0300
     16 C16       -11.4222   -0.1635   53.0004 C.1     1  ZINC000928803822    0.2000
     17 N17       -11.9890    0.8094   52.8501 N.1     1  ZINC000928803822   -0.4000
     18 C18       -10.1877   -1.1867   55.6315 C.3     1  ZINC000928803822    0.4400
     19 F19       -10.9423   -2.3470   55.8353 F       1  ZINC000928803822   -0.1800
     20 F20        -9.1640   -1.1231   56.5829 F       1  ZINC000928803822   -0.1700
     21 F21       -11.0137   -0.0649   55.7595 F       1  ZINC000928803822   -0.1600
     22 C22        -5.8080    1.4139   52.6083 C.ar    1  ZINC000928803822   -0.1200
     23 H23        -2.8147    4.4146   52.7277 H       1  ZINC000928803822    0.0600
     24 H24        -3.3568    3.3720   54.0647 H       1  ZINC000928803822    0.0700
     25 H25        -1.9404    2.9074   53.0919 H       1  ZINC000928803822    0.0700
     26 H26        -2.9678    0.9359   51.2688 H       1  ZINC000928803822    0.0500
     27 H27        -3.9473    1.9431   50.1759 H       1  ZINC000928803822    0.0700
     28 H28        -2.3204    2.4783   50.6606 H       1  ZINC000928803822    0.0700
     29 H29        -5.4129    4.7402   52.1397 H       1  ZINC000928803822    0.1400
     30 H30        -8.9812    2.5596   52.9723 H       1  ZINC000928803822    0.1300
     31 H31        -9.1954    0.8659   54.4125 H       1  ZINC000928803822    0.4100
     32 H32       -10.2478   -1.7384   52.2486 H       1  ZINC000928803822    0.1400
     33 H33       -11.3739   -2.1934   53.5498 H       1  ZINC000928803822    0.1300
     34 H34        -5.2376    0.4972   52.6321 H       1  ZINC000928803822    0.1500
@<TRIPOS>BOND
     1     1     2    1
     2     1    23    1
     3     1    24    1
     4     1    25    1
     5     2     3    1
     6     2     4    1
     7     3    26    1
     8     3    27    1
     9     3    28    1
    10     4    22   ar
    11     4     5   ar
    12     5     6   ar
    13     5    29    1
    14     6     7    1
    15     6     8   ar
    16     8     9   ar
    17     8    30    1
    18     9    10    1
    19     9    22   ar
    20    10    11    2
    21    10    12   am
    22    12    13    1
    23    12    31    1
    24    13    14    1
    25    13    15    1
    26    13    18    1
    27    15    16    1
    28    15    32    1
    29    15    33    1
    30    16    17    3
    31    18    19    1
    32    18    20    1
    33    18    21    1
    34    22    34    1
@<TRIPOS>SUBSTRUCTURE
     1 ZINC000928803822        1 TEMP              0 ****  ****    0 ROOT


##########                                Name:    ZINC001176298561
##########                DOCK_Rotatable_Bonds:                   6
##########                         Heavy_Atoms:                  23
##########                    Molecular_Weight:             337.781
##########                DOCK_Rotatable_Bonds:                   6
##########                       Formal_Charge:          -0.0100003
##########                     HBond_Acceptors:                   7
##########                        HBond_Donors:                   2
##########                         Heavy_Atoms:                  23
##########                          Grid_Score:          -24.662769
##########                     Grid_vdw_energy:          -24.603773
##########                      Grid_es_energy:           -0.058996
##########           Internal_energy_repulsive:           12.652261

@<TRIPOS>MOLECULE
ZINC001176298561
 40 41 1 0 0
SMALL
USER_CHARGES


@<TRIPOS>ATOM
      1 C1         -9.9272   -0.7890   56.9790 C.3     1  ZINC001176298561   -0.1700
      2 C2        -10.9808    0.0062   56.2053 C.3     1  ZINC001176298561    0.1100
      3 N3        -10.3755    0.5722   54.9973 N.am    1  ZINC001176298561   -0.6100
      4 C4        -10.6572   -0.0233   53.6887 C.3     1  ZINC001176298561    0.0900
      5 C5         -9.6047   -1.0889   53.3761 C.3     1  ZINC001176298561   -0.1800
      6 C6         -9.5595    1.6408   55.0897 C.2     1  ZINC001176298561    0.5600
      7 O7         -9.3257    2.1350   56.1753 O.2     1  ZINC001176298561   -0.5300
      8 C8         -8.9484    2.2122   53.8703 C.ar    1  ZINC001176298561   -0.0600
      9 C9         -9.6367    3.1716   53.1264 C.ar    1  ZINC001176298561   -0.1900
     10 C10        -9.0632    3.7043   51.9865 C.ar    1  ZINC001176298561    0.1400
     11 F11        -9.7306    4.6334   51.2677 F       1  ZINC001176298561   -0.1300
     12 C12        -7.8070    3.2888   51.5803 C.ar    1  ZINC001176298561   -0.1800
     13 C13        -7.1150    2.3335   52.3159 C.ar    1  ZINC001176298561    0.2400
     14 N14        -5.8473    1.9175   51.9024 N.pl3   1  ZINC001176298561   -0.6700
     15 C15        -4.7045    2.5556   52.3994 C.2     1  ZINC001176298561    0.0400
     16 C16        -4.7636    3.2749   53.5617 C.2     1  ZINC001176298561   -0.0300
     17 C17        -3.6036    3.9041   54.0380 C.2     1  ZINC001176298561   -0.1300
     18 Cl18       -3.6567    4.8217   55.5108 Cl      1  ZINC001176298561   -0.0400
     19 C19        -2.4434    3.7958   53.3500 C.2     1  ZINC001176298561    0.1400
     20 N20        -2.3831    3.0807   52.1937 N.am    1  ZINC001176298561   -0.6000
     21 C21        -3.4757    2.4597   51.7099 C.2     1  ZINC001176298561    0.5100
     22 O22        -3.4061    1.8215   50.6716 O.2     1  ZINC001176298561   -0.5200
     23 C23        -7.6802    1.7981   53.4636 C.ar    1  ZINC001176298561   -0.1300
     24 H24       -10.3776   -1.2102   57.8778 H       1  ZINC001176298561    0.0700
     25 H25        -9.5469   -1.5949   56.3514 H       1  ZINC001176298561    0.0600
     26 H26        -9.1066   -0.1284   57.2591 H       1  ZINC001176298561    0.0600
     27 H27       -11.8013   -0.6544   55.9252 H       1  ZINC001176298561    0.0800
     28 H28       -11.3612    0.8120   56.8330 H       1  ZINC001176298561    0.0900
     29 H29       -11.6457   -0.4823   53.7035 H       1  ZINC001176298561    0.0900
     30 H30       -10.6280    0.7519   52.9229 H       1  ZINC001176298561    0.0800
     31 H31        -9.3790   -1.6531   54.2809 H       1  ZINC001176298561    0.0700
     32 H32        -9.9884   -1.7653   52.6122 H       1  ZINC001176298561    0.0700
     33 H33        -8.6971   -0.6074   53.0122 H       1  ZINC001176298561    0.0600
     34 H34       -10.6172    3.4976   53.4406 H       1  ZINC001176298561    0.1500
     35 H35        -7.3635    3.7076   50.6891 H       1  ZINC001176298561    0.1300
     36 H36        -5.7588    1.1866   51.2709 H       1  ZINC001176298561    0.4200
     37 H37        -5.6926    3.3576   54.1063 H       1  ZINC001176298561    0.1500
     38 H38        -1.5546    4.2830   53.7229 H       1  ZINC001176298561    0.1800
     39 H39        -1.5424    3.0147   51.7143 H       1  ZINC001176298561    0.4300
     40 H40        -7.1436    1.0559   54.0360 H       1  ZINC001176298561    0.1400
@<TRIPOS>BOND
     1     1     2    1
     2     1    24    1
     3     1    25    1
     4     1    26    1
     5     2     3    1
     6     2    27    1
     7     2    28    1
     8     3     4    1
     9     3     6   am
    10     4     5    1
    11     4    29    1
    12     4    30    1
    13     5    31    1
    14     5    32    1
    15     5    33    1
    16     6     7    2
    17     6     8    1
    18     8    23   ar
    19     8     9   ar
    20     9    10   ar
    21     9    34    1
    22    10    11    1
    23    10    12   ar
    24    12    13   ar
    25    12    35    1
    26    13    14    1
    27    13    23   ar
    28    14    15    1
    29    14    36    1
    30    15    21    1
    31    15    16    2
    32    16    17    1
    33    16    37    1
    34    17    18    1
    35    17    19    2
    36    19    20    1
    37    19    38    1
    38    20    21   am
    39    20    39    1
    40    21    22    2
    41    23    40    1
@<TRIPOS>SUBSTRUCTURE
     1 ZINC001176298561        1 TEMP              0 ****  ****    0 ROOT


##########                                Name:    ZINC001401207732
##########                DOCK_Rotatable_Bonds:                   8
##########                         Heavy_Atoms:                  23
##########                    Molecular_Weight:             337.446
##########                DOCK_Rotatable_Bonds:                   8
##########                       Formal_Charge:          -0.0199995
##########                     HBond_Acceptors:                   8
##########                        HBond_Donors:                   1
##########                         Heavy_Atoms:                  23
##########                          Grid_Score:          -24.650494
##########                     Grid_vdw_energy:          -23.561268
##########                      Grid_es_energy:           -1.089225
##########           Internal_energy_repulsive:           17.148186

@<TRIPOS>MOLECULE
ZINC001401207732
 46 47 1 0 0
SMALL
USER_CHARGES


@<TRIPOS>ATOM
      1 C1        -15.4087   -2.6970   57.0601 C.3     1  ZINC001401207732   -0.0900
      2 C2        -14.0536   -2.3178   57.5998 C.2     1  ZINC001401207732    0.1500
      3 C3        -13.5664   -1.0528   57.5454 C.2     1  ZINC001401207732   -0.3000
      4 C4        -14.2488    0.1131   56.9742 C.2     1  ZINC001401207732    0.6100
      5 O5        -14.8972    0.8510   57.6925 O.2     1  ZINC001401207732   -0.5200
      6 N6        -14.1579    0.3672   55.6537 N.am    1  ZINC001401207732   -0.5900
      7 C7        -14.8396    1.5317   55.0833 C.3     1  ZINC001401207732    0.0700
      8 C8        -13.3774   -0.5211   54.7889 C.3     1  ZINC001401207732    0.1400
      9 H9        -13.2223   -1.4749   55.2931 H       1  ZINC001401207732    0.1100
     10 C10       -14.1349   -0.7534   53.4800 C.3     1  ZINC001401207732   -0.1600
     11 C11       -12.0225    0.1224   54.4868 C.3     1  ZINC001401207732    0.0500
     12 N12       -11.4369   -0.5062   53.2952 N.3     1  ZINC001401207732   -0.6800
     13 C13       -10.0986   -1.0384   53.5848 C.3     1  ZINC001401207732    0.1500
     14 C14        -9.0897    0.0795   53.5253 C.2     1  ZINC001401207732    0.1800
     15 N15        -7.9057    0.0337   52.9637 N.2     1  ZINC001401207732   -0.4800
     16 C16        -7.3665    1.2507   53.1562 C.2     1  ZINC001401207732    0.1800
     17 C17        -6.0059    1.7065   52.6955 C.3     1  ZINC001401207732   -0.0100
     18 C18        -5.3695    0.6176   51.8294 C.3     1  ZINC001401207732   -0.1500
     19 C19        -6.1487    2.9909   51.8765 C.3     1  ZINC001401207732   -0.1500
     20 N20        -8.2340    1.9613   53.8129 N.2     1  ZINC001401207732   -0.3800
     21 O21        -9.2332    1.3087   54.0298 O.3     1  ZINC001401207732    0.0900
     22 S22       -11.9634   -1.0631   58.2774 S.3     1  ZINC001401207732    0.1800
     23 C23       -12.1063   -2.7378   58.5893 C.2     1  ZINC001401207732    0.0100
     24 N24       -13.2451   -3.1806   58.1622 N.2     1  ZINC001401207732   -0.4800
     25 H25       -15.3143   -2.9899   56.0144 H       1  ZINC001401207732    0.0800
     26 H26       -15.8088   -3.5311   57.6364 H       1  ZINC001401207732    0.0800
     27 H27       -16.0829   -1.8442   57.1391 H       1  ZINC001401207732    0.1000
     28 H28       -15.8781    1.2770   54.8712 H       1  ZINC001401207732    0.0600
     29 H29       -14.8058    2.3571   55.7944 H       1  ZINC001401207732    0.0800
     30 H30       -14.3423    1.8274   54.1596 H       1  ZINC001401207732    0.0900
     31 H31       -13.5541   -1.4143   52.8366 H       1  ZINC001401207732    0.0700
     32 H32       -15.1001   -1.2119   53.6952 H       1  ZINC001401207732    0.0700
     33 H33       -14.2900    0.2004   52.9757 H       1  ZINC001401207732    0.0600
     34 H34       -11.3555   -0.0192   55.3372 H       1  ZINC001401207732    0.0800
     35 H35       -12.1589    1.1884   54.3054 H       1  ZINC001401207732    0.0500
     36 H36       -11.4090    0.1412   52.5217 H       1  ZINC001401207732    0.3600
     37 H37        -9.8425   -1.7986   52.8468 H       1  ZINC001401207732    0.1100
     38 H38       -10.0915   -1.4817   54.5806 H       1  ZINC001401207732    0.0800
     39 H39        -5.3735    1.8969   53.5627 H       1  ZINC001401207732    0.1000
     40 H40        -4.3855    0.9473   51.4961 H       1  ZINC001401207732    0.0700
     41 H41        -5.2678   -0.2975   52.4128 H       1  ZINC001401207732    0.0600
     42 H42        -6.0018    0.4272   50.9622 H       1  ZINC001401207732    0.0600
     43 H43        -6.6021    3.7667   52.4935 H       1  ZINC001401207732    0.0600
     44 H44        -5.1647    3.3207   51.5433 H       1  ZINC001401207732    0.0700
     45 H45        -6.7810    2.8006   51.0094 H       1  ZINC001401207732    0.0600
     46 H46       -11.3512   -3.3419   59.0702 H       1  ZINC001401207732    0.2000
@<TRIPOS>BOND
     1     1     2    1
     2     1    25    1
     3     1    26    1
     4     1    27    1
     5     2    24    1
     6     2     3    2
     7     3     4    1
     8     3    22    1
     9     4     5    2
    10     4     6   am
    11     6     7    1
    12     6     8    1
    13     7    28    1
    14     7    29    1
    15     7    30    1
    16     8     9    1
    17     8    10    1
    18     8    11    1
    19    10    31    1
    20    10    32    1
    21    10    33    1
    22    11    12    1
    23    11    34    1
    24    11    35    1
    25    12    13    1
    26    12    36    1
    27    13    14    1
    28    13    37    1
    29    13    38    1
    30    14    21    1
    31    14    15    2
    32    15    16    1
    33    16    17    1
    34    16    20    2
    35    17    18    1
    36    17    19    1
    37    17    39    1
    38    18    40    1
    39    18    41    1
    40    18    42    1
    41    19    43    1
    42    19    44    1
    43    19    45    1
    44    20    21    1
    45    22    23    1
    46    23    24    2
    47    23    46    1
@<TRIPOS>SUBSTRUCTURE
     1 ZINC001401207732        1 TEMP              0 ****  ****    0 ROOT


##########                                Name:    ZINC000012087388
##########                DOCK_Rotatable_Bonds:                   5
##########                         Heavy_Atoms:                  29
##########                    Molecular_Weight:              418.52
##########                DOCK_Rotatable_Bonds:                   5
##########                       Formal_Charge:          -0.0499999
##########                     HBond_Acceptors:                  10
##########                        HBond_Donors:                   1
##########                         Heavy_Atoms:                  29
##########                          Grid_Score:          -24.572361
##########                     Grid_vdw_energy:          -23.378418
##########                      Grid_es_energy:           -1.193943
##########           Internal_energy_repulsive:           29.833302

@<TRIPOS>MOLECULE
ZINC000012087388
 55 58 1 0 0
SMALL
USER_CHARGES


@<TRIPOS>ATOM
      1 C1         -7.6218   -0.3733   59.5989 C.3     1  <0>        -0.6600
      2 S2         -8.0739    1.3032   59.0738 S.o2    1  <0>         2.5100
      3 O3         -9.0590    1.8484   59.9405 O.2     1  <0>        -0.9400
      4 O4         -6.9141    2.0458   58.7237 O.2     1  <0>        -0.9300
      5 C5         -8.9196    1.0721   57.5455 C.ar    1  <0>        -0.8400
      6 C6         -8.3372    1.4580   56.3486 C.ar    1  <0>         0.3000
      7 N7         -8.9990    1.2701   55.2187 N.ar    1  <0>        -0.5800
      8 C8        -10.2043    0.7202   55.2232 C.ar    1  <0>         0.6000
      9 N9        -10.8684    0.5383   54.0226 N.pl3   1  <0>        -0.5700
     10 C10       -11.5610   -0.7249   53.7341 C.3     1  <0>         0.1200
     11 C11       -13.0101   -0.4152   53.3454 C.3     1  <0>        -0.1400
     12 C12       -13.0207    0.5860   52.1881 C.3     1  <0>        -0.1200
     13 C13       -12.3507    1.8884   52.6318 C.3     1  <0>        -0.1400
     14 C14       -10.8992    1.6070   53.0148 C.3     1  <0>         0.1200
     15 N15       -10.7890    0.3399   56.3498 N.ar    1  <0>        -0.5700
     16 C16       -10.1797    0.4950   57.5135 C.ar    1  <0>         0.3200
     17 C17       -10.8517    0.0597   58.7901 C.3     1  <0>        -0.0700
     18 C18       -11.8773    1.1144   59.2119 C.3     1  <0>        -0.1300
     19 C19       -12.5335    0.6852   60.5279 C.3     1  <0>         0.0900
     20 N20       -13.0897   -0.6643   60.3610 N.am    1  <0>        -0.6100
     21 C21       -14.3820   -0.9151   60.6501 C.2     1  <0>         0.5900
     22 O22       -14.8304   -2.0367   60.5076 O.2     1  <0>        -0.5100
     23 C23       -15.2504    0.1681   61.1381 C.2     1  <0>        -0.0400
     24 C24       -15.4898    0.5102   62.4577 C.2     1  <0>        -0.1500
     25 C25       -16.3728    1.5912   62.4053 C.2     1  <0>         0.0000
     26 N26       -16.6193    1.8473   61.1459 N.2     1  <0>        -0.2700
     27 N27       -15.9772    1.0411   60.3795 N.pl3   1  <0>        -0.3900
     28 C28       -12.2104   -1.7353   59.8725 C.3     1  <0>         0.1100
     29 C29       -11.5579   -1.2791   58.5638 C.3     1  <0>        -0.1200
     30 H30        -8.5246   -0.9720   59.7199 H       1  <0>         0.1400
     31 H31        -6.9813   -0.8300   58.8444 H       1  <0>         0.1300
     32 H32        -7.0878   -0.3252   60.5480 H       1  <0>         0.1400
     33 H33        -7.3551    1.9071   56.3386 H       1  <0>         0.1900
     34 H34       -11.0626   -1.2349   52.9097 H       1  <0>         0.0700
     35 H35       -11.5480   -1.3594   54.6203 H       1  <0>         0.1000
     36 H36       -13.5082   -1.3340   53.0362 H       1  <0>         0.0800
     37 H37       -13.5328    0.0124   54.2012 H       1  <0>         0.0700
     38 H38       -12.4766    0.1679   51.3412 H       1  <0>         0.0700
     39 H39       -14.0502    0.7894   51.8933 H       1  <0>         0.0700
     40 H40       -12.3794    2.6092   51.8146 H       1  <0>         0.0800
     41 H41       -12.8796    2.2942   53.4942 H       1  <0>         0.0700
     42 H42       -10.4477    2.5106   53.4245 H       1  <0>         0.1000
     43 H43       -10.3443    1.2861   52.1332 H       1  <0>         0.0700
     44 H44       -10.1032   -0.0526   59.5745 H       1  <0>         0.1000
     45 H45       -11.3774    2.0731   59.3503 H       1  <0>         0.0800
     46 H46       -12.6401    1.2095   58.4390 H       1  <0>         0.0900
     47 H47       -11.7875    0.6774   61.3226 H       1  <0>         0.0800
     48 H48       -13.3332    1.3812   60.7815 H       1  <0>         0.0900
     49 H49       -15.0808    0.0410   63.3403 H       1  <0>         0.1700
     50 H50       -16.7801    2.1212   63.2536 H       1  <0>         0.1900
     51 H51       -16.0090    1.0467   59.4101 H       1  <0>         0.4400
     52 H52       -11.4381   -1.9406   60.6138 H       1  <0>         0.0800
     53 H53       -12.7969   -2.6366   59.6936 H       1  <0>         0.1000
     54 H54       -12.3236   -1.1615   57.7971 H       1  <0>         0.0800
     55 H55       -10.8305   -2.0240   58.2409 H       1  <0>         0.0900
@<TRIPOS>BOND
     1     1     2    1
     2     1    30    1
     3     1    31    1
     4     1    32    1
     5     2     3    2
     6     2     4    2
     7     2     5    1
     8     5    16   ar
     9     5     6   ar
    10     6     7   ar
    11     6    33    1
    12     7     8   ar
    13     8     9    1
    14     8    15   ar
    15     9    14    1
    16     9    10    1
    17    10    11    1
    18    10    34    1
    19    10    35    1
    20    11    12    1
    21    11    36    1
    22    11    37    1
    23    12    13    1
    24    12    38    1
    25    12    39    1
    26    13    14    1
    27    13    40    1
    28    13    41    1
    29    14    42    1
    30    14    43    1
    31    15    16   ar
    32    16    17    1
    33    17    29    1
    34    17    18    1
    35    17    44    1
    36    18    19    1
    37    18    45    1
    38    18    46    1
    39    19    20    1
    40    19    47    1
    41    19    48    1
    42    20    21   am
    43    20    28    1
    44    21    22    2
    45    21    23    1
    46    23    27    1
    47    23    24    2
    48    24    25    1
    49    24    49    1
    50    25    26    2
    51    25    50    1
    52    26    27    1
    53    27    51    1
    54    28    29    1
    55    28    52    1
    56    28    53    1
    57    29    54    1
    58    29    55    1
@<TRIPOS>SUBSTRUCTURE
     1 <0>         1 TEMP              0 ****  ****    0 ROOT


##########                                Name:    ZINC000893400114
##########                DOCK_Rotatable_Bonds:                   6
##########                         Heavy_Atoms:                  27
##########                    Molecular_Weight:             381.472
##########                DOCK_Rotatable_Bonds:                   6
##########                       Formal_Charge:           0.0300001
##########                     HBond_Acceptors:                   8
##########                        HBond_Donors:                   1
##########                         Heavy_Atoms:                  27
##########                          Grid_Score:          -24.560518
##########                     Grid_vdw_energy:          -24.293840
##########                      Grid_es_energy:           -0.266679
##########           Internal_energy_repulsive:           81.282280

@<TRIPOS>MOLECULE
ZINC000893400114
 58 61 1 0 0
SMALL
USER_CHARGES


@<TRIPOS>ATOM
      1 O1         -6.2441    3.0811   55.6343 O.2     1  ZINC000893400114   -0.5600
      2 C2         -5.5190    3.3011   54.6834 C.2     1  ZINC000893400114    0.7100
      3 N3         -4.4018    4.0376   54.8442 N.am    1  ZINC000893400114   -0.7300
      4 C4         -4.0640    4.5779   56.1634 C.3     1  ZINC000893400114    0.1400
      5 H5         -4.9670    4.7304   56.7547 H       1  ZINC000893400114    0.1200
      6 C6         -3.2802    5.9031   56.0209 C.3     1  ZINC000893400114   -0.1400
      7 C7         -1.8169    5.4110   56.0768 C.3     1  ZINC000893400114    0.1000
      8 N8         -1.8566    4.1487   56.8243 N.am    1  ZINC000893400114   -0.6200
      9 C9         -0.6854    3.5085   57.4283 C.3     1  ZINC000893400114    0.1600
     10 C10        -0.0384    2.5615   56.4131 C.3     1  ZINC000893400114   -0.1700
     11 C11         1.2282    1.9576   57.0253 C.3     1  ZINC000893400114    0.0700
     12 O12         2.1188    3.0080   57.4068 O.3     1  ZINC000893400114   -0.3800
     13 C13         1.5849    3.8976   58.3895 C.3     1  ZINC000893400114    0.0700
     14 C14         0.3327    4.5795   57.8321 C.3     1  ZINC000893400114   -0.1700
     15 C15        -3.1083    3.6537   56.8852 C.2     1  ZINC000893400114    0.5100
     16 O16        -3.4204    2.6198   57.4371 O.2     1  ZINC000893400114   -0.4900
     17 N17        -5.8297    2.8040   53.4698 N.am    1  ZINC000893400114   -0.6300
     18 C18        -4.9646    3.0521   52.3055 C.3     1  ZINC000893400114    0.0800
     19 C19        -4.6739    1.7098   51.6245 C.3     1  ZINC000893400114    0.0500
     20 O20        -5.9079    1.0359   51.3665 O.3     1  ZINC000893400114   -0.3800
     21 C21        -6.6517    0.7060   52.5420 C.3     1  ZINC000893400114    0.0600
     22 C22        -7.0408    1.9922   53.2711 C.3     1  ZINC000893400114    0.1400
     23 H23        -7.7572    2.5524   52.6703 H       1  ZINC000893400114    0.0800
     24 C24        -7.6622    1.6483   54.6263 C.3     1  ZINC000893400114   -0.1200
     25 C25        -8.7767    0.6186   54.4299 C.3     1  ZINC000893400114    0.0700
     26 H26        -8.3690   -0.2856   53.9778 H       1  ZINC000893400114    0.0800
     27 C27        -9.8790    1.2063   53.5227 C.3     1  ZINC000893400114   -0.1500
     28 C28       -11.1751    0.6703   54.1895 C.3     1  ZINC000893400114   -0.1600
     29 C29       -10.7631    0.6799   55.6832 C.3     1  ZINC000893400114    0.0500
     30 O30        -9.3750    0.3034   55.6925 O.3     1  ZINC000893400114   -0.3800
     31 H31        -3.8212    4.2097   54.0864 H       1  ZINC000893400114    0.4000
     32 H32        -3.4943    6.3822   55.0655 H       1  ZINC000893400114    0.1000
     33 H33        -3.4974    6.5760   56.8504 H       1  ZINC000893400114    0.1000
     34 H34        -1.4374    5.2410   55.0693 H       1  ZINC000893400114    0.0700
     35 H35        -1.1940    6.1383   56.5975 H       1  ZINC000893400114    0.0800
     36 H36        -0.9917    2.9458   58.3102 H       1  ZINC000893400114    0.0900
     37 H37        -0.7376    1.7639   56.1620 H       1  ZINC000893400114    0.0800
     38 H38         0.2217    3.1164   55.5117 H       1  ZINC000893400114    0.0900
     39 H39         0.9625    1.3694   57.9037 H       1  ZINC000893400114    0.0500
     40 H40         1.7161    1.3157   56.2918 H       1  ZINC000893400114    0.1000
     41 H41         1.3239    3.3348   59.2857 H       1  ZINC000893400114    0.0500
     42 H42         2.3298    4.6533   58.6387 H       1  ZINC000893400114    0.1000
     43 H43         0.6003    5.1751   56.9593 H       1  ZINC000893400114    0.0900
     44 H44        -0.1011    5.2250   58.5957 H       1  ZINC000893400114    0.0700
     45 H45        -5.4721    3.7164   51.6061 H       1  ZINC000893400114    0.0800
     46 H46        -4.0302    3.5077   52.6330 H       1  ZINC000893400114    0.0800
     47 H47        -4.1508    1.8845   50.6843 H       1  ZINC000893400114    0.1100
     48 H48        -4.0540    1.0966   52.2785 H       1  ZINC000893400114    0.0500
     49 H49        -7.5515    0.1584   52.2618 H       1  ZINC000893400114    0.1300
     50 H50        -6.0390    0.0891   53.1993 H       1  ZINC000893400114    0.0500
     51 H51        -6.8967    1.2345   55.2826 H       1  ZINC000893400114    0.0800
     52 H52        -8.0766    2.5510   55.0755 H       1  ZINC000893400114    0.1100
     53 H53        -9.8557    2.2959   53.5403 H       1  ZINC000893400114    0.0800
     54 H54        -9.7834    0.8316   52.5036 H       1  ZINC000893400114    0.0800
     55 H55       -12.0156    1.3405   54.0096 H       1  ZINC000893400114    0.0800
     56 H56       -11.4018   -0.3408   53.8511 H       1  ZINC000893400114    0.0800
     57 H57       -10.8880    1.6778   56.1036 H       1  ZINC000893400114    0.0600
     58 H58       -11.3545   -0.0442   56.2435 H       1  ZINC000893400114    0.0800
@<TRIPOS>BOND
     1     1     2    2
     2     2     3   am
     3     2    17   am
     4     3     4    1
     5     3    31    1
     6     4     5    1
     7     4    15    1
     8     4     6    1
     9     6     7    1
    10     6    32    1
    11     6    33    1
    12     7     8    1
    13     7    34    1
    14     7    35    1
    15     8     9    1
    16     8    15   am
    17     9    14    1
    18     9    10    1
    19     9    36    1
    20    10    11    1
    21    10    37    1
    22    10    38    1
    23    11    12    1
    24    11    39    1
    25    11    40    1
    26    12    13    1
    27    13    14    1
    28    13    41    1
    29    13    42    1
    30    14    43    1
    31    14    44    1
    32    15    16    2
    33    17    22    1
    34    17    18    1
    35    18    19    1
    36    18    45    1
    37    18    46    1
    38    19    20    1
    39    19    47    1
    40    19    48    1
    41    20    21    1
    42    21    22    1
    43    21    49    1
    44    21    50    1
    45    22    23    1
    46    22    24    1
    47    24    25    1
    48    24    51    1
    49    24    52    1
    50    25    26    1
    51    25    30    1
    52    25    27    1
    53    27    28    1
    54    27    53    1
    55    27    54    1
    56    28    29    1
    57    28    55    1
    58    28    56    1
    59    29    30    1
    60    29    57    1
    61    29    58    1
@<TRIPOS>SUBSTRUCTURE
     1 ZINC000893400114        1 TEMP              0 ****  ****    0 ROOT


##########                                Name:    ZINC000467104849
##########                DOCK_Rotatable_Bonds:                   6
##########                         Heavy_Atoms:                  29
##########                    Molecular_Weight:             421.896
##########                DOCK_Rotatable_Bonds:                   6
##########                       Formal_Charge:           0.0200002
##########                     HBond_Acceptors:                   7
##########                        HBond_Donors:                   0
##########                         Heavy_Atoms:                  29
##########                          Grid_Score:          -24.515978
##########                     Grid_vdw_energy:          -24.266884
##########                      Grid_es_energy:           -0.249093
##########           Internal_energy_repulsive:           68.754318

@<TRIPOS>MOLECULE
ZINC000467104849
 54 56 1 0 0
SMALL
USER_CHARGES


@<TRIPOS>ATOM
      1 C1        -16.2485    1.7526   53.9280 C.3     1  ZINC000467104849    0.0200
      2 O2        -16.4176    0.5529   54.6858 O.3     1  ZINC000467104849   -0.3000
      3 C3        -15.3756    0.1655   55.4691 C.ar    1  ZINC000467104849    0.1000
      4 C4        -14.2114    0.9155   55.4966 C.ar    1  ZINC000467104849   -0.1700
      5 C5        -13.1530    0.5205   56.2940 C.ar    1  ZINC000467104849   -0.1200
      6 C6        -13.2532   -0.6226   57.0644 C.ar    1  ZINC000467104849   -0.0800
      7 C7        -12.0966   -1.0490   57.9312 C.3     1  ZINC000467104849   -0.0400
      8 C8        -12.2619   -0.4541   59.3311 C.3     1  ZINC000467104849   -0.1300
      9 C9        -12.0661   -2.5757   58.0263 C.3     1  ZINC000467104849   -0.1600
     10 C10       -10.8071   -0.5575   57.3256 C.2     1  ZINC000467104849    0.5300
     11 O11       -10.0570    0.1376   57.9777 O.2     1  ZINC000467104849   -0.5300
     12 N12       -10.4874   -0.8903   56.0593 N.am    1  ZINC000467104849   -0.6100
     13 C13       -11.3814   -1.7324   55.2488 C.3     1  ZINC000467104849    0.0600
     14 C14       -11.6086   -1.0387   53.9009 C.3     1  ZINC000467104849    0.0500
     15 O15       -10.3436   -0.7130   53.3199 O.3     1  ZINC000467104849   -0.3700
     16 C16        -9.5661    0.2080   54.0887 C.3     1  ZINC000467104849    0.1300
     17 H17       -10.1350    1.1251   54.2423 H       1  ZINC000467104849    0.0800
     18 C18        -8.2891    0.5248   53.3540 C.ar    1  ZINC000467104849   -0.0900
     19 C19        -7.5975   -0.4815   52.7062 C.ar    1  ZINC000467104849   -0.0500
     20 C20        -6.4258   -0.1929   52.0318 C.ar    1  ZINC000467104849   -0.1400
     21 C21        -5.9450    1.1047   52.0045 C.ar    1  ZINC000467104849    0.1200
     22 F22        -4.8003    1.3879   51.3453 F       1  ZINC000467104849   -0.1200
     23 C23        -6.6391    2.1133   52.6539 C.ar    1  ZINC000467104849   -0.0800
     24 Cl24       -6.0380    3.7416   52.6213 Cl      1  ZINC000467104849   -0.0400
     25 C25        -7.8134    1.8225   53.3238 C.ar    1  ZINC000467104849   -0.0700
     26 C26        -9.2371   -0.4173   55.4444 C.3     1  ZINC000467104849    0.0900
     27 C27       -14.4128   -1.3757   57.0420 C.ar    1  ZINC000467104849   -0.1600
     28 C28       -15.4788   -0.9825   56.2495 C.ar    1  ZINC000467104849    0.1100
     29 O29       -16.6199   -1.7220   56.2263 O.3     1  ZINC000467104849   -0.3000
     30 C30       -16.6552   -2.8867   57.0535 C.3     1  ZINC000467104849    0.0200
     31 H31       -17.1512    1.9466   53.3486 H       1  ZINC000467104849    0.1000
     32 H32       -16.0647    2.5871   54.6048 H       1  ZINC000467104849    0.0600
     33 H33       -15.4006    1.6392   53.2525 H       1  ZINC000467104849    0.0600
     34 H34       -14.1301    1.8087   54.8949 H       1  ZINC000467104849    0.1400
     35 H35       -12.2458    1.1061   56.3145 H       1  ZINC000467104849    0.1300
     36 H36       -13.1482   -0.8776   59.8036 H       1  ZINC000467104849    0.0700
     37 H37       -11.3829   -0.6884   59.9317 H       1  ZINC000467104849    0.0700
     38 H38       -12.3723    0.6278   59.2555 H       1  ZINC000467104849    0.0700
     39 H39       -11.8595   -2.9969   57.0424 H       1  ZINC000467104849    0.0700
     40 H40       -11.2857   -2.8808   58.7233 H       1  ZINC000467104849    0.0700
     41 H41       -13.0314   -2.9370   58.3808 H       1  ZINC000467104849    0.0700
     42 H42       -10.9209   -2.7071   55.0869 H       1  ZINC000467104849    0.0800
     43 H43       -12.3345   -1.8570   55.7628 H       1  ZINC000467104849    0.1100
     44 H44       -12.1539   -1.7071   53.2347 H       1  ZINC000467104849    0.1100
     45 H45       -12.1848   -0.1261   54.0536 H       1  ZINC000467104849    0.0600
     46 H46        -7.9725   -1.4940   52.7273 H       1  ZINC000467104849    0.1500
     47 H47        -5.8857   -0.9797   51.5264 H       1  ZINC000467104849    0.1500
     48 H48        -8.3550    2.6080   53.8297 H       1  ZINC000467104849    0.1500
     49 H49        -8.7684    0.3272   56.0880 H       1  ZINC000467104849    0.1100
     50 H50        -8.5609   -1.2608   55.3052 H       1  ZINC000467104849    0.0800
     51 H51       -14.4887   -2.2684   57.6451 H       1  ZINC000467104849    0.1400
     52 H52       -15.8583   -3.5682   56.7554 H       1  ZINC000467104849    0.0600
     53 H53       -16.5149   -2.5971   58.0949 H       1  ZINC000467104849    0.0600
     54 H54       -17.6190   -3.3832   56.9410 H       1  ZINC000467104849    0.1000
@<TRIPOS>BOND
     1     1     2    1
     2     1    31    1
     3     1    32    1
     4     1    33    1
     5     2     3    1
     6     3    28   ar
     7     3     4   ar
     8     4     5   ar
     9     4    34    1
    10     5     6   ar
    11     5    35    1
    12     6     7    1
    13     6    27   ar
    14     7     8    1
    15     7     9    1
    16     7    10    1
    17     8    36    1
    18     8    37    1
    19     8    38    1
    20     9    39    1
    21     9    40    1
    22     9    41    1
    23    10    11    2
    24    10    12   am
    25    12    26    1
    26    12    13    1
    27    13    14    1
    28    13    42    1
    29    13    43    1
    30    14    15    1
    31    14    44    1
    32    14    45    1
    33    15    16    1
    34    16    17    1
    35    16    18    1
    36    16    26    1
    37    18    25   ar
    38    18    19   ar
    39    19    20   ar
    40    19    46    1
    41    20    21   ar
    42    20    47    1
    43    21    22    1
    44    21    23   ar
    45    23    24    1
    46    23    25   ar
    47    25    48    1
    48    26    49    1
    49    26    50    1
    50    27    28   ar
    51    27    51    1
    52    28    29    1
    53    29    30    1
    54    30    52    1
    55    30    53    1
    56    30    54    1
@<TRIPOS>SUBSTRUCTURE
     1 ZINC000467104849        1 TEMP              0 ****  ****    0 ROOT


##########                                Name:    ZINC000375477402
##########                DOCK_Rotatable_Bonds:                   5
##########                         Heavy_Atoms:                  26
##########                    Molecular_Weight:             378.342
##########                DOCK_Rotatable_Bonds:                   5
##########                       Formal_Charge:         -1.2666e-07
##########                     HBond_Acceptors:                   9
##########                        HBond_Donors:                   1
##########                         Heavy_Atoms:                  26
##########                          Grid_Score:          -24.513443
##########                     Grid_vdw_energy:          -23.647078
##########                      Grid_es_energy:           -0.866366
##########           Internal_energy_repulsive:            8.399114

@<TRIPOS>MOLECULE
ZINC000375477402
 45 47 1 0 0
SMALL
USER_CHARGES


@<TRIPOS>ATOM
      1 O1        -11.4488   -0.6199   59.9323 O.2     1  ZINC000375477402   -0.5600
      2 C2        -10.3860   -0.4872   59.3566 C.2     1  ZINC000375477402    0.7200
      3 N3        -10.2133   -1.0181   58.1299 N.am    1  ZINC000375477402   -0.7300
      4 C4        -11.3040   -1.7601   57.4927 C.3     1  ZINC000375477402    0.1800
      5 H5        -12.2602   -1.3880   57.8606 H       1  ZINC000375477402    0.1500
      6 C6        -11.2333   -1.5732   55.9990 C.ar    1  ZINC000375477402   -0.1300
      7 C7        -10.0088   -1.5879   55.3579 C.ar    1  ZINC000375477402   -0.0800
      8 C8         -9.9422   -1.4165   53.9877 C.ar    1  ZINC000375477402   -0.0900
      9 C9        -11.0999   -1.2300   53.2560 C.ar    1  ZINC000375477402   -0.1100
     10 C10       -12.3275   -1.2148   53.8950 C.ar    1  ZINC000375477402    0.0800
     11 F11       -13.4596   -1.0326   53.1805 F       1  ZINC000375477402   -0.1200
     12 C12       -12.3948   -1.3924   55.2684 C.ar    1  ZINC000375477402    0.1000
     13 F13       -13.5920   -1.3779   55.8944 F       1  ZINC000375477402   -0.1100
     14 C14       -11.1727   -3.2473   57.8273 C.3     1  ZINC000375477402    0.4400
     15 F15        -9.9968   -3.7507   57.2607 F       1  ZINC000375477402   -0.1600
     16 F16       -11.1282   -3.4106   59.2160 F       1  ZINC000375477402   -0.1700
     17 F17       -12.2730   -3.9404   57.3112 F       1  ZINC000375477402   -0.1800
     18 N18        -9.3827    0.1955   59.9429 N.am    1  ZINC000375477402   -0.6300
     19 C19        -8.0498    0.4356   59.3588 C.3     1  ZINC000375477402    0.1000
     20 C20        -7.5267    1.7101   60.0699 C.3     1  ZINC000375477402   -0.1200
     21 C21        -8.0818    1.5163   61.4986 C.3     1  ZINC000375477402   -0.1100
     22 C22        -9.4373    0.8307   61.2696 C.3     1  ZINC000375477402    0.1400
     23 C23        -7.1497    0.6238   62.3086 C.3     1  ZINC000375477402   -0.1100
     24 C24        -7.6885    0.5006   63.7386 C.3     1  ZINC000375477402   -0.1600
     25 C25        -7.8520    1.9017   64.3338 C.3     1  ZINC000375477402    0.0600
     26 O26        -8.7387    2.6674   63.5152 O.3     1  ZINC000375477402   -0.3800
     27 C27        -8.2713    2.8658   62.1780 C.3     1  ZINC000375477402    0.0800
     28 H28        -9.3669   -0.9087   57.6690 H       1  ZINC000375477402    0.4000
     29 H29        -9.1032   -1.7331   55.9281 H       1  ZINC000375477402    0.1400
     30 H30        -8.9846   -1.4279   53.4885 H       1  ZINC000375477402    0.1500
     31 H31       -11.0465   -1.0959   52.1857 H       1  ZINC000375477402    0.1500
     32 H32        -7.3901   -0.4085   59.5599 H       1  ZINC000375477402    0.0700
     33 H33        -8.1315    0.6068   58.2855 H       1  ZINC000375477402    0.0700
     34 H34        -6.4371    1.7359   60.0740 H       1  ZINC000375477402    0.0900
     35 H35        -7.9357    2.6098   59.6103 H       1  ZINC000375477402    0.0800
     36 H36       -10.2374    1.5703   61.3007 H       1  ZINC000375477402    0.0800
     37 H37        -9.6020    0.0698   62.0325 H       1  ZINC000375477402    0.0700
     38 H38        -7.1023   -0.3642   61.8507 H       1  ZINC000375477402    0.0700
     39 H39        -6.1528    1.0639   62.3316 H       1  ZINC000375477402    0.0700
     40 H40        -8.6549   -0.0034   63.7220 H       1  ZINC000375477402    0.0700
     41 H41        -6.9871   -0.0732   64.3443 H       1  ZINC000375477402    0.0800
     42 H42        -8.2633    1.8232   65.3401 H       1  ZINC000375477402    0.1000
     43 H43        -6.8805    2.3940   64.3760 H       1  ZINC000375477402    0.0500
     44 H44        -7.3200    3.3974   62.2010 H       1  ZINC000375477402    0.0600
     45 H45        -9.0017    3.4530   61.6214 H       1  ZINC000375477402    0.1000
@<TRIPOS>BOND
     1     1     2    2
     2     2     3   am
     3     2    18   am
     4     3     4    1
     5     3    28    1
     6     4     5    1
     7     4     6    1
     8     4    14    1
     9     6    12   ar
    10     6     7   ar
    11     7     8   ar
    12     7    29    1
    13     8     9   ar
    14     8    30    1
    15     9    10   ar
    16     9    31    1
    17    10    11    1
    18    10    12   ar
    19    12    13    1
    20    14    15    1
    21    14    16    1
    22    14    17    1
    23    18    22    1
    24    18    19    1
    25    19    20    1
    26    19    32    1
    27    19    33    1
    28    20    21    1
    29    20    34    1
    30    20    35    1
    31    21    27    1
    32    21    22    1
    33    21    23    1
    34    22    36    1
    35    22    37    1
    36    23    24    1
    37    23    38    1
    38    23    39    1
    39    24    25    1
    40    24    40    1
    41    24    41    1
    42    25    26    1
    43    25    42    1
    44    25    43    1
    45    26    27    1
    46    27    44    1
    47    27    45    1
@<TRIPOS>SUBSTRUCTURE
     1 ZINC000375477402        1 TEMP              0 ****  ****    0 ROOT


##########                                Name:    ZINC001060620810
##########                DOCK_Rotatable_Bonds:                   5
##########                         Heavy_Atoms:                  24
##########                    Molecular_Weight:             332.421
##########                DOCK_Rotatable_Bonds:                   5
##########                       Formal_Charge:           0.0299998
##########                     HBond_Acceptors:                   6
##########                        HBond_Donors:                   2
##########                         Heavy_Atoms:                  24
##########                          Grid_Score:          -24.512659
##########                     Grid_vdw_energy:          -25.176542
##########                      Grid_es_energy:            0.663883
##########           Internal_energy_repulsive:           10.121049

@<TRIPOS>MOLECULE
ZINC001060620810
 49 52 1 0 0
SMALL
USER_CHARGES


@<TRIPOS>ATOM
      1 O1         -2.7504    4.4096   53.0419 O.2     1  ZINC001060620810   -0.5400
      2 C2         -3.5434    3.8666   53.7818 C.2     1  ZINC001060620810    0.5500
      3 N3         -3.2727    3.7593   55.0978 N.am    1  ZINC001060620810   -0.7200
      4 C4         -2.0216    4.3002   55.6348 C.3     1  ZINC001060620810    0.1400
      5 C5         -2.1565    4.4926   57.1466 C.3     1  ZINC001060620810   -0.1300
      6 C6         -0.8499    5.0574   57.7075 C.3     1  ZINC001060620810   -0.1300
      7 C7          0.2932    4.0826   57.4174 C.3     1  ZINC001060620810    0.1600
      8 N8          0.0074    2.7927   58.0503 N.pl3   1  ZINC001060620810   -0.6900
      9 C9          0.6047    2.4655   59.2567 C.ar    1  ZINC001060620810    0.5600
     10 N10         1.3141    3.3834   59.8962 N.ar    1  ZINC001060620810   -0.5400
     11 C11         1.8938    3.1062   61.0526 C.ar    1  ZINC001060620810    0.1700
     12 C12         1.7599    1.8330   61.5884 C.ar    1  ZINC001060620810   -0.0700
     13 F13         2.3424    1.5139   62.7649 F       1  ZINC001060620810   -0.1300
     14 C14         1.0139    0.8949   60.8887 C.ar    1  ZINC001060620810    0.1800
     15 N15         0.4569    1.2411   59.7397 N.ar    1  ZINC001060620810   -0.5500
     16 C16         0.4282    3.8902   55.9055 C.3     1  ZINC001060620810   -0.1200
     17 C17        -0.8785    3.3254   55.3448 C.3     1  ZINC001060620810   -0.1300
     18 C18        -4.8312    3.3119   53.2297 C.3     1  ZINC001060620810   -0.1500
     19 C19        -6.0696    4.1744   53.4349 C.3     1  ZINC001060620810   -0.1500
     20 C20        -5.8803    2.9181   54.2577 C.3     1  ZINC001060620810   -0.1100
     21 H21        -5.6321    3.0707   55.3079 H       1  ZINC001060620810    0.1100
     22 C22        -6.8285    1.7527   53.9935 C.3     1  ZINC001060620810   -0.0900
     23 C23        -6.2665    0.8430   52.9009 C.3     1  ZINC001060620810   -0.1200
     24 C24        -5.9458    1.6984   51.6699 C.3     1  ZINC001060620810   -0.1200
     25 C25        -4.6764    2.5020   51.9520 C.3     1  ZINC001060620810   -0.0800
     26 H26        -3.9063    3.3240   55.6893 H       1  ZINC001060620810    0.4000
     27 H27        -1.8089    5.2600   55.1639 H       1  ZINC001060620810    0.0900
     28 H28        -2.9708    5.1870   57.3534 H       1  ZINC001060620810    0.0700
     29 H29        -2.3691    3.5328   57.6175 H       1  ZINC001060620810    0.0600
     30 H30        -0.9460    5.1945   58.7846 H       1  ZINC001060620810    0.0700
     31 H31        -0.6373    6.0172   57.2366 H       1  ZINC001060620810    0.0800
     32 H32         1.2241    4.4851   57.8170 H       1  ZINC001060620810    0.1000
     33 H33        -0.6001    2.1677   57.6246 H       1  ZINC001060620810    0.4100
     34 H34         2.4678    3.8599   61.5710 H       1  ZINC001060620810    0.1800
     35 H35         0.8900   -0.1051   61.2770 H       1  ZINC001060620810    0.1800
     36 H36         1.2425    3.1959   55.6989 H       1  ZINC001060620810    0.0800
     37 H37         0.6407    4.8500   55.4347 H       1  ZINC001060620810    0.0900
     38 H38        -1.0912    2.3657   55.8156 H       1  ZINC001060620810    0.0700
     39 H39        -0.7824    3.1884   54.2677 H       1  ZINC001060620810    0.0800
     40 H40        -5.9405    5.1278   53.9471 H       1  ZINC001060620810    0.1000
     41 H41        -6.8300    4.1582   52.6541 H       1  ZINC001060620810    0.1100
     42 H42        -7.7871    2.1575   53.6687 H       1  ZINC001060620810    0.0700
     43 H43        -6.9710    1.1751   54.9068 H       1  ZINC001060620810    0.0700
     44 H44        -7.0059    0.0864   52.6384 H       1  ZINC001060620810    0.0700
     45 H45        -5.3566    0.3607   53.2585 H       1  ZINC001060620810    0.0700
     46 H46        -6.7736    2.3795   51.4719 H       1  ZINC001060620810    0.0700
     47 H47        -5.7857    1.0522   50.8068 H       1  ZINC001060620810    0.0700
     48 H48        -4.4859    3.1781   51.1184 H       1  ZINC001060620810    0.0700
     49 H49        -3.8347    1.8178   52.0596 H       1  ZINC001060620810    0.0700
@<TRIPOS>BOND
     1     1     2    2
     2     2     3   am
     3     2    18    1
     4     3     4    1
     5     3    26    1
     6     4    17    1
     7     4     5    1
     8     4    27    1
     9     5     6    1
    10     5    28    1
    11     5    29    1
    12     6     7    1
    13     6    30    1
    14     6    31    1
    15     7     8    1
    16     7    16    1
    17     7    32    1
    18     8     9    1
    19     8    33    1
    20     9    15   ar
    21     9    10   ar
    22    10    11   ar
    23    11    12   ar
    24    11    34    1
    25    12    13    1
    26    12    14   ar
    27    14    15   ar
    28    14    35    1
    29    16    17    1
    30    16    36    1
    31    16    37    1
    32    17    38    1
    33    17    39    1
    34    18    20    1
    35    18    25    1
    36    18    19    1
    37    19    20    1
    38    19    40    1
    39    19    41    1
    40    20    21    1
    41    20    22    1
    42    22    23    1
    43    22    42    1
    44    22    43    1
    45    23    24    1
    46    23    44    1
    47    23    45    1
    48    24    25    1
    49    24    46    1
    50    24    47    1
    51    25    48    1
    52    25    49    1
@<TRIPOS>SUBSTRUCTURE
     1 ZINC001060620810        1 TEMP              0 ****  ****    0 ROOT


##########                                Name:    ZINC000179211660
##########                DOCK_Rotatable_Bonds:                   6
##########                         Heavy_Atoms:                  23
##########                    Molecular_Weight:             385.208
##########                DOCK_Rotatable_Bonds:                   6
##########                       Formal_Charge:        -1.78814e-07
##########                     HBond_Acceptors:                   6
##########                        HBond_Donors:                   1
##########                         Heavy_Atoms:                  23
##########                          Grid_Score:          -24.504381
##########                     Grid_vdw_energy:          -24.685341
##########                      Grid_es_energy:            0.180960
##########           Internal_energy_repulsive:           13.643546

@<TRIPOS>MOLECULE
ZINC000179211660
 38 39 1 0 0
SMALL
USER_CHARGES


@<TRIPOS>ATOM
      1 C1         -7.6716    3.5795   54.9901 C.3     1  ZINC000179211660    0.0300
      2 O2         -8.4209    2.3771   54.8030 O.3     1  ZINC000179211660   -0.2700
      3 C3         -7.8965    1.4481   53.9609 C.ar    1  ZINC000179211660    0.1500
      4 C4         -6.6865    1.6892   53.3271 C.ar    1  ZINC000179211660   -0.2200
      5 C5         -6.1553    0.7430   52.4719 C.ar    1  ZINC000179211660   -0.0700
      6 C6         -6.8289   -0.4431   52.2473 C.ar    1  ZINC000179211660   -0.1700
      7 C7         -8.0357   -0.6857   52.8776 C.ar    1  ZINC000179211660   -0.0700
      8 C8         -8.5680    0.2544   53.7382 C.ar    1  ZINC000179211660   -0.1500
      9 C9         -9.8828   -0.0108   54.4252 C.3     1  ZINC000179211660    0.1800
     10 N10        -9.6706   -0.9262   55.5492 N.am    1  ZINC000179211660   -0.6200
     11 C11        -9.6408   -2.3729   55.3200 C.3     1  ZINC000179211660    0.0700
     12 C12        -9.5028   -0.4374   56.7939 C.2     1  ZINC000179211660    0.7000
     13 O13        -9.5291    0.7632   56.9843 O.2     1  ZINC000179211660   -0.5300
     14 N14        -9.3060   -1.2795   57.8276 N.am    1  ZINC000179211660   -0.6800
     15 C15        -9.1316   -0.7715   59.1216 C.ar    1  ZINC000179211660    0.1900
     16 C16        -7.8679   -0.4000   59.5577 C.ar    1  ZINC000179211660   -0.1400
     17 C17        -7.6984    0.1019   60.8361 C.ar    1  ZINC000179211660    0.1500
     18 F18        -6.4682    0.4639   61.2615 F       1  ZINC000179211660   -0.1100
     19 C19        -8.7891    0.2340   61.6798 C.ar    1  ZINC000179211660   -0.1300
     20 Br20       -8.5540    0.9209   63.4259 Br      1  ZINC000179211660   -0.0100
     21 C21       -10.0503   -0.1354   61.2469 C.ar    1  ZINC000179211660   -0.0700
     22 C22       -10.2255   -0.6333   59.9690 C.ar    1  ZINC000179211660    0.0600
     23 F23       -11.4573   -0.9937   59.5470 F       1  ZINC000179211660   -0.1300
     24 H24        -8.2006    4.2331   55.6837 H       1  ZINC000179211660    0.1000
     25 H25        -6.6900    3.3363   55.3969 H       1  ZINC000179211660    0.0500
     26 H26        -7.5526    4.0862   54.0324 H       1  ZINC000179211660    0.0500
     27 H27        -6.1602    2.6161   53.5018 H       1  ZINC000179211660    0.1300
     28 H28        -5.2132    0.9303   51.9781 H       1  ZINC000179211660    0.1200
     29 H29        -6.4123   -1.1814   51.5781 H       1  ZINC000179211660    0.1200
     30 H30        -8.5602   -1.6129   52.7002 H       1  ZINC000179211660    0.1300
     31 H31       -10.2957    0.9281   54.7942 H       1  ZINC000179211660    0.0900
     32 H32       -10.5787   -0.4603   53.7169 H       1  ZINC000179211660    0.1000
     33 H33        -8.6185   -2.6862   55.1085 H       1  ZINC000179211660    0.0600
     34 H34       -10.0025   -2.8890   56.2093 H       1  ZINC000179211660    0.0600
     35 H35       -10.2793   -2.6196   54.4717 H       1  ZINC000179211660    0.0800
     36 H36        -9.2850   -2.2373   57.6758 H       1  ZINC000179211660    0.4100
     37 H37        -7.0173   -0.5028   58.9003 H       1  ZINC000179211660    0.1800
     38 H38       -10.8990   -0.0314   61.9066 H       1  ZINC000179211660    0.1600
@<TRIPOS>BOND
     1     1     2    1
     2     1    24    1
     3     1    25    1
     4     1    26    1
     5     2     3    1
     6     3     8   ar
     7     3     4   ar
     8     4     5   ar
     9     4    27    1
    10     5     6   ar
    11     5    28    1
    12     6     7   ar
    13     6    29    1
    14     7     8   ar
    15     7    30    1
    16     8     9    1
    17     9    10    1
    18     9    31    1
    19     9    32    1
    20    10    11    1
    21    10    12   am
    22    11    33    1
    23    11    34    1
    24    11    35    1
    25    12    13    2
    26    12    14   am
    27    14    15    1
    28    14    36    1
    29    15    22   ar
    30    15    16   ar
    31    16    17   ar
    32    16    37    1
    33    17    18    1
    34    17    19   ar
    35    19    20    1
    36    19    21   ar
    37    21    22   ar
    38    21    38    1
    39    22    23    1
@<TRIPOS>SUBSTRUCTURE
     1 ZINC000179211660        1 TEMP              0 ****  ****    0 ROOT


##########                                Name:    ZINC000560467340
##########                DOCK_Rotatable_Bonds:                   7
##########                         Heavy_Atoms:                  24
##########                    Molecular_Weight:             369.481
##########                DOCK_Rotatable_Bonds:                   7
##########                       Formal_Charge:          -0.0199997
##########                     HBond_Acceptors:                   7
##########                        HBond_Donors:                   2
##########                         Heavy_Atoms:                  24
##########                          Grid_Score:          -24.499990
##########                     Grid_vdw_energy:          -24.370291
##########                      Grid_es_energy:           -0.129699
##########           Internal_energy_repulsive:           27.216105

@<TRIPOS>MOLECULE
ZINC000560467340
 44 46 1 0 0
SMALL
USER_CHARGES


@<TRIPOS>ATOM
      1 O1        -15.2066   -4.4614   57.3059 O.2     1  ZINC000560467340   -0.9600
      2 S2        -14.8990   -3.3761   58.1700 S.o2    1  ZINC000560467340    2.7100
      3 O3        -15.2868   -3.3365   59.5365 O.2     1  ZINC000560467340   -0.9500
      4 N4        -13.2513   -3.2122   58.1465 N.am    1  ZINC000560467340   -1.0900
      5 C5        -12.6177   -2.0822   58.8304 C.3     1  ZINC000560467340    0.1400
      6 C6        -11.4535   -1.5619   57.9849 C.3     1  ZINC000560467340   -0.0500
      7 C7        -10.8680   -0.2994   58.6204 C.3     1  ZINC000560467340   -0.0700
      8 C8        -11.9406    0.4122   59.4043 C.ar    1  ZINC000560467340   -0.0900
      9 C9        -12.0421    0.2182   60.7692 C.ar    1  ZINC000560467340   -0.0900
     10 C10       -13.0253    0.8702   61.4891 C.ar    1  ZINC000560467340   -0.1500
     11 C11       -13.9085    1.7184   60.8427 C.ar    1  ZINC000560467340    0.1000
     12 F12       -14.8697    2.3566   61.5455 F       1  ZINC000560467340   -0.1400
     13 C13       -13.8055    1.9122   59.4757 C.ar    1  ZINC000560467340   -0.1500
     14 C14       -12.8185    1.2628   58.7586 C.ar    1  ZINC000560467340   -0.0900
     15 C15       -11.9359   -1.2583   56.5514 C.3     1  ZINC000560467340   -0.1300
     16 C16       -10.7485   -1.6845   55.6529 C.3     1  ZINC000560467340   -0.1200
     17 C17       -10.2254   -2.9596   56.3596 C.3     1  ZINC000560467340   -0.1600
     18 C18       -10.3660   -2.6436   57.8629 C.3     1  ZINC000560467340    0.1100
     19 H19        -9.4208   -2.2687   58.2556 H       1  ZINC000560467340    0.0600
     20 O20       -10.7602   -3.8181   58.5752 O.3     1  ZINC000560467340   -0.5500
     21 C21       -15.5773   -1.9341   57.4183 C.2     1  ZINC000560467340   -0.6900
     22 C22       -15.8131   -1.8513   56.1081 C.2     1  ZINC000560467340   -0.1000
     23 S23       -16.4871   -0.2717   55.7285 S.3     1  ZINC000560467340    0.1500
     24 C24       -16.4085    0.2015   57.4207 C.2     1  ZINC000560467340   -0.2200
     25 C25       -15.9114   -0.8033   58.1435 C.2     1  ZINC000560467340   -0.0700
     26 H26       -12.7056   -3.8645   57.6799 H       1  ZINC000560467340    0.4200
     27 H27       -13.3489   -1.2863   58.9710 H       1  ZINC000560467340    0.0600
     28 H28       -12.2444   -2.4082   59.8013 H       1  ZINC000560467340    0.0800
     29 H29       -10.0515   -0.5739   59.2883 H       1  ZINC000560467340    0.0800
     30 H30       -10.4917    0.3601   57.8383 H       1  ZINC000560467340    0.0800
     31 H31       -11.3531   -0.4433   61.2732 H       1  ZINC000560467340    0.1300
     32 H32       -13.1049    0.7180   62.5554 H       1  ZINC000560467340    0.1400
     33 H33       -14.4940    2.5733   58.9703 H       1  ZINC000560467340    0.1400
     34 H34       -12.7377    1.4141   57.6923 H       1  ZINC000560467340    0.1300
     35 H35       -12.8231   -1.8458   56.3150 H       1  ZINC000560467340    0.0700
     36 H36       -12.1398   -0.1940   56.4349 H       1  ZINC000560467340    0.0800
     37 H37       -11.0906   -1.9147   54.6439 H       1  ZINC000560467340    0.0700
     38 H38        -9.9809   -0.9107   55.6343 H       1  ZINC000560467340    0.0700
     39 H39       -10.8364   -3.8217   56.0921 H       1  ZINC000560467340    0.0800
     40 H40        -9.1809   -3.1367   56.1030 H       1  ZINC000560467340    0.0700
     41 H41       -11.0246   -3.6528   59.4906 H       1  ZINC000560467340    0.3800
     42 H42       -15.6193   -2.6344   55.3899 H       1  ZINC000560467340    0.1800
     43 H43       -16.7196    1.1576   57.8149 H       1  ZINC000560467340    0.1700
     44 H44       -15.7725   -0.7368   59.2125 H       1  ZINC000560467340    0.1500
@<TRIPOS>BOND
     1     1     2    2
     2     2     3    2
     3     2     4   am
     4     2    21    1
     5     4     5    1
     6     4    26    1
     7     5     6    1
     8     5    27    1
     9     5    28    1
    10     6    18    1
    11     6     7    1
    12     6    15    1
    13     7     8    1
    14     7    29    1
    15     7    30    1
    16     8    14   ar
    17     8     9   ar
    18     9    10   ar
    19     9    31    1
    20    10    11   ar
    21    10    32    1
    22    11    12    1
    23    11    13   ar
    24    13    14   ar
    25    13    33    1
    26    14    34    1
    27    15    16    1
    28    15    35    1
    29    15    36    1
    30    16    17    1
    31    16    37    1
    32    16    38    1
    33    17    18    1
    34    17    39    1
    35    17    40    1
    36    18    19    1
    37    18    20    1
    38    20    41    1
    39    21    25    1
    40    21    22    2
    41    22    23    1
    42    22    42    1
    43    23    24    1
    44    24    25    2
    45    24    43    1
    46    25    44    1
@<TRIPOS>SUBSTRUCTURE
     1 ZINC000560467340        1 TEMP              0 ****  ****    0 ROOT


##########                                Name:    ZINC000245764166
##########                DOCK_Rotatable_Bonds:                   8
##########                         Heavy_Atoms:                  26
##########                    Molecular_Weight:             359.512
##########                DOCK_Rotatable_Bonds:                   8
##########                       Formal_Charge:          -0.0100008
##########                     HBond_Acceptors:                   5
##########                        HBond_Donors:                   2
##########                         Heavy_Atoms:                  26
##########                          Grid_Score:          -24.470835
##########                     Grid_vdw_energy:          -23.692799
##########                      Grid_es_energy:           -0.778037
##########           Internal_energy_repulsive:           28.500345

@<TRIPOS>MOLECULE
ZINC000245764166
 59 61 1 0 0
SMALL
USER_CHARGES


@<TRIPOS>ATOM
      1 C1         -9.6154   -1.0089   54.3327 C.3     1  ZINC000245764166    0.0200
      2 N2         -9.6879   -0.4394   55.6849 N.3     1  ZINC000245764166   -0.5300
      3 C3         -9.7589    1.0270   55.6356 C.3     1  ZINC000245764166    0.0600
      4 C4         -8.6068    1.5586   54.8225 C.ar    1  ZINC000245764166   -0.0800
      5 C5         -8.7690    1.8033   53.4716 C.ar    1  ZINC000245764166   -0.1000
      6 C6         -7.7122    2.2909   52.7258 C.ar    1  ZINC000245764166   -0.1200
      7 C7         -6.4934    2.5343   53.3308 C.ar    1  ZINC000245764166   -0.1200
      8 C8         -6.3314    2.2905   54.6818 C.ar    1  ZINC000245764166   -0.1200
      9 C9         -7.3895    1.8069   55.4286 C.ar    1  ZINC000245764166   -0.1200
     10 C10       -10.8243   -0.9967   56.4305 C.3     1  ZINC000245764166    0.0500
     11 C11       -10.3118   -1.9971   57.4686 C.3     1  ZINC000245764166    0.1900
     12 C12       -11.4483   -2.3687   58.4233 C.3     1  ZINC000245764166   -0.1600
     13 C13        -9.8094   -3.2560   56.7592 C.3     1  ZINC000245764166   -0.1500
     14 N14        -9.2140   -1.3935   58.2280 N.am    1  ZINC000245764166   -0.7400
     15 C15        -9.4145   -0.2458   58.9057 C.2     1  ZINC000245764166    0.7000
     16 O16       -10.5061    0.2893   58.8857 O.2     1  ZINC000245764166   -0.5800
     17 N17        -8.4049    0.3086   59.6057 N.am    1  ZINC000245764166   -0.7500
     18 C18        -8.6225    1.5570   60.3409 C.3     1  ZINC000245764166    0.1800
     19 H19        -9.6814    1.6522   60.5807 H       1  ZINC000245764166    0.0900
     20 C20        -8.1970    2.7349   59.4679 C.3     1  ZINC000245764166   -0.1300
     21 C21        -8.4863    4.0351   60.2261 C.3     1  ZINC000245764166   -0.1100
     22 C22        -7.6233    4.0588   61.4875 C.3     1  ZINC000245764166   -0.1100
     23 C23        -7.9151    2.8728   62.3765 C.3     1  ZINC000245764166    0.0900
     24 H24        -7.2020    2.8629   63.2008 H       1  ZINC000245764166    0.0600
     25 O25        -9.2452    2.8860   62.9122 O.3     1  ZINC000245764166   -0.3600
     26 C26        -9.4885    1.5574   63.4155 C.3     1  ZINC000245764166    0.0500
     27 C27        -8.5851    0.5930   62.6203 C.3     1  ZINC000245764166   -0.1500
     28 C28        -7.8130    1.5245   61.6391 C.3     1  ZINC000245764166   -0.1300
     29 H29        -6.7808    1.2094   61.4867 H       1  ZINC000245764166    0.1000
     30 H30        -8.7554   -0.5921   53.8085 H       1  ZINC000245764166    0.0800
     31 H31        -9.5104   -2.0916   54.3996 H       1  ZINC000245764166    0.0700
     32 H32       -10.5268   -0.7652   53.7865 H       1  ZINC000245764166    0.0200
     33 H33       -10.6991    1.3299   55.1746 H       1  ZINC000245764166    0.0400
     34 H34        -9.7049    1.4278   56.6477 H       1  ZINC000245764166    0.1100
     35 H35        -9.7213    1.6131   52.9990 H       1  ZINC000245764166    0.1200
     36 H36        -7.8387    2.4814   51.6702 H       1  ZINC000245764166    0.1200
     37 H37        -5.6676    2.9146   52.7479 H       1  ZINC000245764166    0.1200
     38 H38        -5.3791    2.4804   55.1545 H       1  ZINC000245764166    0.1200
     39 H39        -7.2630    1.6165   56.4841 H       1  ZINC000245764166    0.1200
     40 H40       -11.3582   -0.1913   56.9348 H       1  ZINC000245764166    0.0400
     41 H41       -11.4987   -1.5032   55.7400 H       1  ZINC000245764166    0.1000
     42 H42       -12.2651   -2.8179   57.8582 H       1  ZINC000245764166    0.0700
     43 H43       -11.0831   -3.0814   59.1628 H       1  ZINC000245764166    0.0800
     44 H44       -11.8063   -1.4718   58.9287 H       1  ZINC000245764166    0.0500
     45 H45        -8.9225   -3.0137   56.1737 H       1  ZINC000245764166    0.0600
     46 H46        -9.5593   -4.0153   57.5002 H       1  ZINC000245764166    0.0800
     47 H47       -10.5884   -3.6360   56.0983 H       1  ZINC000245764166    0.0600
     48 H48        -8.3428   -1.8197   58.2431 H       1  ZINC000245764166    0.3900
     49 H49        -7.5344   -0.1189   59.6227 H       1  ZINC000245764166    0.3900
     50 H50        -7.1304    2.6655   59.2543 H       1  ZINC000245764166    0.0600
     51 H51        -8.7613    2.7218   58.5355 H       1  ZINC000245764166    0.0700
     52 H52        -8.2398    4.8900   59.5964 H       1  ZINC000245764166    0.0700
     53 H53        -9.5403    4.0730   60.5014 H       1  ZINC000245764166    0.0700
     54 H54        -6.5719    4.0394   61.2009 H       1  ZINC000245764166    0.0800
     55 H55        -7.8244    4.9766   62.0401 H       1  ZINC000245764166    0.0700
     56 H56        -9.2378    1.5110   64.4752 H       1  ZINC000245764166    0.0600
     57 H57       -10.5351    1.2912   63.2682 H       1  ZINC000245764166    0.0800
     58 H58        -7.8910    0.0817   63.2874 H       1  ZINC000245764166    0.0800
     59 H59        -9.1879   -0.1282   62.0685 H       1  ZINC000245764166    0.0800
@<TRIPOS>BOND
     1     1     2    1
     2     1    30    1
     3     1    31    1
     4     1    32    1
     5     2     3    1
     6     2    10    1
     7     3     4    1
     8     3    33    1
     9     3    34    1
    10     4     9   ar
    11     4     5   ar
    12     5     6   ar
    13     5    35    1
    14     6     7   ar
    15     6    36    1
    16     7     8   ar
    17     7    37    1
    18     8     9   ar
    19     8    38    1
    20     9    39    1
    21    10    11    1
    22    10    40    1
    23    10    41    1
    24    11    12    1
    25    11    13    1
    26    11    14    1
    27    12    42    1
    28    12    43    1
    29    12    44    1
    30    13    45    1
    31    13    46    1
    32    13    47    1
    33    14    15   am
    34    14    48    1
    35    15    16    2
    36    15    17   am
    37    17    18    1
    38    17    49    1
    39    18    19    1
    40    18    28    1
    41    18    20    1
    42    20    21    1
    43    20    50    1
    44    20    51    1
    45    21    22    1
    46    21    52    1
    47    21    53    1
    48    22    23    1
    49    22    54    1
    50    22    55    1
    51    23    24    1
    52    23    28    1
    53    23    25    1
    54    25    26    1
    55    26    27    1
    56    26    56    1
    57    26    57    1
    58    27    28    1
    59    27    58    1
    60    27    59    1
    61    28    29    1
@<TRIPOS>SUBSTRUCTURE
     1 ZINC000245764166        1 TEMP              0 ****  ****    0 ROOT


##########                                Name:    ZINC000004040798
##########                DOCK_Rotatable_Bonds:                   3
##########                         Heavy_Atoms:                  22
##########                    Molecular_Weight:             361.151
##########                DOCK_Rotatable_Bonds:                   3
##########                       Formal_Charge:           0.0200003
##########                     HBond_Acceptors:                   6
##########                        HBond_Donors:                   1
##########                         Heavy_Atoms:                  22
##########                          Grid_Score:          -24.393976
##########                     Grid_vdw_energy:          -23.194973
##########                      Grid_es_energy:           -1.199004
##########           Internal_energy_repulsive:            2.247535

@<TRIPOS>MOLECULE
ZINC000004040798
 31 33 1 0 0
SMALL
USER_CHARGES


@<TRIPOS>ATOM
      1 O1         -6.0177    1.5406   51.0223 O.2     1  ZINC000004040798   -0.4800
      2 C2         -5.2671    1.6932   51.9677 C.2     1  ZINC000004040798    0.6100
      3 N3         -5.7465    1.6305   53.2258 N.am    1  ZINC000004040798   -0.6600
      4 C4         -7.1077    1.3956   53.4445 C.ar    1  ZINC000004040798    0.2300
      5 C5         -7.6602    0.1611   53.1302 C.ar    1  ZINC000004040798   -0.1300
      6 C6         -9.0051   -0.0677   53.3472 C.ar    1  ZINC000004040798   -0.0100
      7 C7         -9.8015    0.9307   53.8768 C.ar    1  ZINC000004040798   -0.0600
      8 N8        -11.2421    0.6815   54.1079 N.pl3   1  ZINC000004040798    0.0300
      9 O9        -11.7248   -0.4021   53.8316 O.2     1  ZINC000004040798   -0.1500
     10 O10       -11.9450    1.5600   54.5745 O.2     1  ZINC000004040798   -0.1500
     11 C11        -9.2551    2.1616   54.1917 C.ar    1  ZINC000004040798    0.0000
     12 C12        -7.9096    2.3956   53.9821 C.ar    1  ZINC000004040798   -0.1400
     13 Br13       -7.1630    4.0787   54.4128 Br      1  ZINC000004040798    0.0000
     14 C14        -3.8370    1.9400   51.7379 C.2     1  ZINC000004040798   -0.0500
     15 C15        -3.0369    2.6973   52.5324 C.2     1  ZINC000004040798   -0.0800
     16 C16        -1.7083    2.6605   51.9223 C.ar    1  ZINC000004040798   -0.1500
     17 C17        -0.4723    3.2243   52.2462 C.ar    1  ZINC000004040798   -0.0500
     18 C18         0.6098    2.9901   51.4450 C.ar    1  ZINC000004040798   -0.1400
     19 C19         0.4879    2.1967   50.3127 C.ar    1  ZINC000004040798   -0.0700
     20 C20        -0.7230    1.6311   49.9757 C.ar    1  ZINC000004040798   -0.1100
     21 C21        -1.8376    1.8546   50.7754 C.ar    1  ZINC000004040798    0.0800
     22 O22        -3.1188    1.4435   50.7088 O.3     1  ZINC000004040798   -0.1900
     23 H23        -5.1474    1.7481   53.9795 H       1  ZINC000004040798    0.4300
     24 H24        -7.0390   -0.6193   52.7160 H       1  ZINC000004040798    0.1800
     25 H25        -9.4352   -1.0277   53.1025 H       1  ZINC000004040798    0.1700
     26 H26        -9.8799    2.9394   54.6053 H       1  ZINC000004040798    0.1700
     27 H27        -3.3240    3.2212   53.4322 H       1  ZINC000004040798    0.1800
     28 H28        -0.3721    3.8430   53.1257 H       1  ZINC000004040798    0.1400
     29 H29         1.5661    3.4255   51.6944 H       1  ZINC000004040798    0.1400
     30 H30         1.3515    2.0209   49.6885 H       1  ZINC000004040798    0.1400
     31 H31        -0.8056    1.0153   49.0923 H       1  ZINC000004040798    0.1400
@<TRIPOS>BOND
     1     1     2    2
     2     2     3   am
     3     2    14    1
     4     3     4    1
     5     3    23    1
     6     4    12   ar
     7     4     5   ar
     8     5     6   ar
     9     5    24    1
    10     6     7   ar
    11     6    25    1
    12     7     8    1
    13     7    11   ar
    14     8     9    2
    15     8    10    2
    16    11    12   ar
    17    11    26    1
    18    12    13    1
    19    14    22    1
    20    14    15    2
    21    15    16    1
    22    15    27    1
    23    16    21   ar
    24    16    17   ar
    25    17    18   ar
    26    17    28    1
    27    18    19   ar
    28    18    29    1
    29    19    20   ar
    30    19    30    1
    31    20    21   ar
    32    20    31    1
    33    21    22    1
@<TRIPOS>SUBSTRUCTURE
     1 ZINC000004040798        1 TEMP              0 ****  ****    0 ROOT


##########                                Name:    ZINC000341804698
##########                DOCK_Rotatable_Bonds:                   7
##########                         Heavy_Atoms:                  24
##########                    Molecular_Weight:             342.318
##########                DOCK_Rotatable_Bonds:                   7
##########                       Formal_Charge:                0.02
##########                     HBond_Acceptors:                   8
##########                        HBond_Donors:                   0
##########                         Heavy_Atoms:                  24
##########                          Grid_Score:          -24.388779
##########                     Grid_vdw_energy:          -24.059322
##########                      Grid_es_energy:           -0.329457
##########           Internal_energy_repulsive:           12.972067

@<TRIPOS>MOLECULE
ZINC000341804698
 41 42 1 0 0
SMALL
USER_CHARGES


@<TRIPOS>ATOM
      1 C1        -13.4387    0.5816   50.0697 C.3     1  ZINC000341804698    0.0300
      2 O2        -12.7900    0.6153   51.3426 O.3     1  ZINC000341804698   -0.3900
      3 C3        -12.3526   -0.6637   51.8061 C.3     1  ZINC000341804698    0.0700
      4 C4        -11.5867   -0.4954   53.1199 C.3     1  ZINC000341804698    0.0400
      5 C5        -10.8560    0.7824   53.1014 C.1     1  ZINC000341804698    0.2200
      6 N6        -10.2922    1.7684   53.0872 N.1     1  ZINC000341804698   -0.4200
      7 C7        -12.5734   -0.5014   54.2897 C.3     1  ZINC000341804698   -0.1200
      8 C8        -11.8066   -0.2981   55.6003 C.3     1  ZINC000341804698    0.1100
      9 N9        -10.7527   -1.3175   55.6946 N.am    1  ZINC000341804698   -0.6000
     10 C10       -10.6581   -2.1089   56.7814 C.2     1  ZINC000341804698    0.5700
     11 O11        -9.7816   -2.9485   56.8473 O.2     1  ZINC000341804698   -0.5200
     12 C12       -11.6204   -1.9558   57.8934 C.ar    1  ZINC000341804698   -0.0900
     13 C13       -11.2815   -1.1948   59.0131 C.ar    1  ZINC000341804698   -0.1100
     14 C14       -12.1820   -1.0541   60.0493 C.ar    1  ZINC000341804698   -0.0800
     15 C15       -13.4203   -1.6650   59.9824 C.ar    1  ZINC000341804698   -0.1700
     16 C16       -13.7663   -2.4246   58.8727 C.ar    1  ZINC000341804698    0.1100
     17 O17       -14.9849   -3.0233   58.8124 O.3     1  ZINC000341804698   -0.3100
     18 C18       -15.8223   -2.6802   57.7063 C.3     1  ZINC000341804698    0.6000
     19 F19       -15.5355   -1.3753   57.2915 F       1  ZINC000341804698   -0.1600
     20 F20       -15.5873   -3.5675   56.6506 F       1  ZINC000341804698   -0.1300
     21 F21       -17.1639   -2.7618   58.0943 F       1  ZINC000341804698   -0.1600
     22 C22       -12.8728   -2.5671   57.8247 C.ar    1  ZINC000341804698   -0.0700
     23 C23        -9.8042   -1.4580   54.5813 C.3     1  ZINC000341804698    0.0900
     24 C24       -10.5934   -1.6483   53.2822 C.3     1  ZINC000341804698   -0.1200
     25 H25       -12.7513    0.1863   49.3219 H       1  ZINC000341804698    0.0400
     26 H26       -14.3195   -0.0579   50.1277 H       1  ZINC000341804698    0.0500
     27 H27       -13.7403    1.5907   49.7888 H       1  ZINC000341804698    0.0900
     28 H28       -13.2178   -1.3061   51.9696 H       1  ZINC000341804698    0.0700
     29 H29       -11.6995   -1.1166   51.0602 H       1  ZINC000341804698    0.0600
     30 H30       -13.2947    0.3056   54.1613 H       1  ZINC000341804698    0.1000
     31 H31       -13.0971   -1.4569   54.3190 H       1  ZINC000341804698    0.0900
     32 H32       -11.3567    0.6947   55.6102 H       1  ZINC000341804698    0.0700
     33 H33       -12.4902   -0.4002   56.4431 H       1  ZINC000341804698    0.1100
     34 H34       -10.3148   -0.7164   59.0688 H       1  ZINC000341804698    0.1400
     35 H35       -11.9184   -0.4652   60.9154 H       1  ZINC000341804698    0.1400
     36 H36       -14.1211   -1.5515   60.7963 H       1  ZINC000341804698    0.1400
     37 H37       -13.1407   -3.1572   56.9608 H       1  ZINC000341804698    0.1500
     38 H38        -9.1910   -0.5598   54.5082 H       1  ZINC000341804698    0.0800
     39 H39        -9.1665   -2.3254   54.7518 H       1  ZINC000341804698    0.1100
     40 H40       -11.1358   -2.5930   53.3210 H       1  ZINC000341804698    0.1000
     41 H41        -9.9055   -1.6577   52.4366 H       1  ZINC000341804698    0.0900
@<TRIPOS>BOND
     1     1     2    1
     2     1    25    1
     3     1    26    1
     4     1    27    1
     5     2     3    1
     6     3     4    1
     7     3    28    1
     8     3    29    1
     9     4    24    1
    10     4     5    1
    11     4     7    1
    12     5     6    3
    13     7     8    1
    14     7    30    1
    15     7    31    1
    16     8     9    1
    17     8    32    1
    18     8    33    1
    19     9    10   am
    20     9    23    1
    21    10    11    2
    22    10    12    1
    23    12    22   ar
    24    12    13   ar
    25    13    14   ar
    26    13    34    1
    27    14    15   ar
    28    14    35    1
    29    15    16   ar
    30    15    36    1
    31    16    17    1
    32    16    22   ar
    33    17    18    1
    34    18    19    1
    35    18    20    1
    36    18    21    1
    37    22    37    1
    38    23    24    1
    39    23    38    1
    40    23    39    1
    41    24    40    1
    42    24    41    1
@<TRIPOS>SUBSTRUCTURE
     1 ZINC000341804698        1 TEMP              0 ****  ****    0 ROOT


##########                                Name:    ZINC000742270208
##########                DOCK_Rotatable_Bonds:                   5
##########                         Heavy_Atoms:                  25
##########                    Molecular_Weight:             376.328
##########                DOCK_Rotatable_Bonds:                   5
##########                       Formal_Charge:                0.02
##########                     HBond_Acceptors:                   9
##########                        HBond_Donors:                   0
##########                         Heavy_Atoms:                  25
##########                          Grid_Score:          -24.372776
##########                     Grid_vdw_energy:          -22.844460
##########                      Grid_es_energy:           -1.528317
##########           Internal_energy_repulsive:           13.864256

@<TRIPOS>MOLECULE
ZINC000742270208
 37 38 1 0 0
SMALL
USER_CHARGES


@<TRIPOS>ATOM
      1 C1         -6.7494    1.5423   66.1180 C.3     1  ZINC000742270208   -0.1400
      2 C2         -7.6141    0.3359   65.7464 C.3     1  ZINC000742270208   -0.1400
      3 C3         -8.2348   -0.2563   67.0132 C.3     1  ZINC000742270208   -0.1400
      4 C4         -8.7089    0.7728   64.8075 C.2     1  ZINC000742270208    0.4000
      5 O5         -9.7818    1.1248   65.2492 O.2     1  ZINC000742270208   -0.4300
      6 C6         -8.4758    0.7721   63.3543 C.ar    1  ZINC000742270208   -0.1000
      7 C7         -7.2161    0.4418   62.8447 C.ar    1  ZINC000742270208   -0.0900
      8 C8         -7.0056    0.4436   61.4819 C.ar    1  ZINC000742270208   -0.0200
      9 C9         -8.0370    0.7714   60.6192 C.ar    1  ZINC000742270208   -0.6800
     10 S10        -7.7579    0.7707   58.8795 S.o2    1  ZINC000742270208    2.6600
     11 O11        -6.3619    0.5780   58.6970 O.2     1  ZINC000742270208   -0.9300
     12 O12        -8.7411   -0.0865   58.3157 O.2     1  ZINC000742270208   -0.9000
     13 O13        -8.0681    2.1720   58.3728 O.3     1  ZINC000742270208   -0.6400
     14 C14        -7.6988    2.3878   57.0817 C.ar    1  ZINC000742270208    0.0500
     15 C15        -6.4137    2.8238   56.7900 C.ar    1  ZINC000742270208    0.0900
     16 F16        -5.5283    3.0341   57.7886 F       1  ZINC000742270208   -0.0900
     17 C17        -6.0395    3.0426   55.4742 C.ar    1  ZINC000742270208    0.1100
     18 F18        -4.7887    3.4668   55.1898 F       1  ZINC000742270208   -0.1000
     19 C19        -6.9460    2.8262   54.4506 C.ar    1  ZINC000742270208   -0.1100
     20 C20        -8.2284    2.3919   54.7396 C.ar    1  ZINC000742270208    0.1200
     21 F21        -9.1114    2.1815   53.7389 F       1  ZINC000742270208   -0.1000
     22 C22        -8.6049    2.1669   56.0536 C.ar    1  ZINC000742270208    0.1200
     23 F23        -9.8563    1.7426   56.3350 F       1  ZINC000742270208   -0.0900
     24 C24        -9.2865    1.0994   61.1158 C.ar    1  ZINC000742270208   -0.0300
     25 C25        -9.5146    1.0962   62.4758 C.ar    1  ZINC000742270208   -0.0800
     26 H26        -5.9576    1.2264   66.7971 H       1  ZINC000742270208    0.0700
     27 H27        -6.3073    1.9642   65.2155 H       1  ZINC000742270208    0.0600
     28 H28        -7.3676    2.2958   66.6062 H       1  ZINC000742270208    0.0600
     29 H29        -6.9959   -0.4175   65.2582 H       1  ZINC000742270208    0.1000
     30 H30        -8.8529    0.4971   67.5013 H       1  ZINC000742270208    0.0700
     31 H31        -8.8508   -1.1157   66.7484 H       1  ZINC000742270208    0.0600
     32 H32        -7.4429   -0.5723   67.6923 H       1  ZINC000742270208    0.0700
     33 H33        -6.4101    0.1865   63.5167 H       1  ZINC000742270208    0.1500
     34 H34        -6.0334    0.1887   61.0868 H       1  ZINC000742270208    0.1500
     35 H35        -6.6527    2.9969   53.4253 H       1  ZINC000742270208    0.1900
     36 H36       -10.0863    1.3542   60.4362 H       1  ZINC000742270208    0.1500
     37 H37       -10.4902    1.3524   62.8618 H       1  ZINC000742270208    0.1500
@<TRIPOS>BOND
     1     1     2    1
     2     1    26    1
     3     1    27    1
     4     1    28    1
     5     2     3    1
     6     2     4    1
     7     2    29    1
     8     3    30    1
     9     3    31    1
    10     3    32    1
    11     4     5    2
    12     4     6    1
    13     6    25   ar
    14     6     7   ar
    15     7     8   ar
    16     7    33    1
    17     8     9   ar
    18     8    34    1
    19     9    10    1
    20     9    24   ar
    21    10    11    2
    22    10    12    2
    23    10    13    1
    24    13    14    1
    25    14    22   ar
    26    14    15   ar
    27    15    16    1
    28    15    17   ar
    29    17    18    1
    30    17    19   ar
    31    19    20   ar
    32    19    35    1
    33    20    21    1
    34    20    22   ar
    35    22    23    1
    36    24    25   ar
    37    24    36    1
    38    25    37    1
@<TRIPOS>SUBSTRUCTURE
     1 ZINC000742270208        1 TEMP              0 ****  ****    0 ROOT


##########                                Name:    ZINC000444205493
##########                DOCK_Rotatable_Bonds:                   4
##########                         Heavy_Atoms:                  24
##########                    Molecular_Weight:             415.351
##########                DOCK_Rotatable_Bonds:                   4
##########                       Formal_Charge:         -0.00999995
##########                     HBond_Acceptors:                   6
##########                        HBond_Donors:                   1
##########                         Heavy_Atoms:                  24
##########                          Grid_Score:          -24.332880
##########                     Grid_vdw_energy:          -24.187902
##########                      Grid_es_energy:           -0.144978
##########           Internal_energy_repulsive:            3.795643

@<TRIPOS>MOLECULE
ZINC000444205493
 47 49 1 0 0
SMALL
USER_CHARGES


@<TRIPOS>ATOM
      1 C1         -4.3730    3.6506   54.8666 C.3     1  ZINC000444205493   -0.1700
      2 C2         -5.6337    2.8287   54.9436 C.2     1  ZINC000444205493    0.5100
      3 O3         -5.8917    2.2071   55.9526 O.2     1  ZINC000444205493   -0.5100
      4 N4         -6.4745    2.7842   53.8912 N.am    1  ZINC000444205493   -0.6800
      5 C5         -7.6454    2.0208   53.9627 C.ar    1  ZINC000444205493    0.2300
      6 C6         -8.7368    2.4868   54.6831 C.ar    1  ZINC000444205493   -0.1400
      7 C7         -9.8913    1.7313   54.7514 C.ar    1  ZINC000444205493    0.0200
      8 C8         -9.9609    0.5117   54.1038 C.ar    1  ZINC000444205493   -0.6900
      9 S9        -11.4353   -0.4487   54.1943 S.o2    1  ZINC000444205493    2.7100
     10 O10       -12.4920    0.3962   53.7597 O.2     1  ZINC000444205493   -0.9500
     11 O11       -11.1385   -1.6979   53.5854 O.2     1  ZINC000444205493   -0.9500
     12 N12       -11.7174   -0.7642   55.7953 N.am    1  ZINC000444205493   -1.0100
     13 C13       -10.8087   -1.4911   56.7020 C.3     1  ZINC000444205493    0.1200
     14 C14       -11.1856   -1.0005   58.1242 C.3     1  ZINC000444205493   -0.1200
     15 C15       -12.7119   -0.8320   57.9959 C.3     1  ZINC000444205493   -0.0700
     16 C16       -13.4319   -2.1581   58.2621 C.3     1  ZINC000444205493   -0.1100
     17 C17       -13.8962   -2.0410   59.7377 C.3     1  ZINC000444205493   -0.1200
     18 C18       -14.2891   -0.5466   59.8589 C.3     1  ZINC000444205493   -0.1000
     19 H19       -15.2909   -0.3823   59.4621 H       1  ZINC000444205493    0.0700
     20 C20       -14.2103   -0.0890   61.3167 C.3     1  ZINC000444205493   -0.1500
     21 C21       -13.2389    0.1931   58.9994 C.3     1  ZINC000444205493   -0.1100
     22 C22       -12.9145   -0.3600   56.5524 C.3     1  ZINC000444205493    0.1300
     23 C23        -8.8760    0.0442   53.3848 C.ar    1  ZINC000444205493    0.0300
     24 C24        -7.7202    0.7972   53.3080 C.ar    1  ZINC000444205493   -0.1500
     25 Br25       -6.2369    0.1574   52.3248 Br      1  ZINC000444205493   -0.0300
     26 H26        -3.8251    3.5644   55.8049 H       1  ZINC000444205493    0.1000
     27 H27        -3.7515    3.2869   54.0482 H       1  ZINC000444205493    0.1000
     28 H28        -4.6304    4.6951   54.6908 H       1  ZINC000444205493    0.1000
     29 H29        -6.2681    3.2812   53.0842 H       1  ZINC000444205493    0.4200
     30 H30        -8.6831    3.4391   55.1899 H       1  ZINC000444205493    0.1600
     31 H31       -10.7405    2.0936   55.3117 H       1  ZINC000444205493    0.1500
     32 H32       -10.9687   -2.5660   56.6171 H       1  ZINC000444205493    0.0800
     33 H33        -9.7713   -1.2427   56.4779 H       1  ZINC000444205493    0.0800
     34 H34       -10.9367   -1.7503   58.8753 H       1  ZINC000444205493    0.0900
     35 H35       -10.7047   -0.0487   58.3498 H       1  ZINC000444205493    0.0800
     36 H36       -14.2898   -2.2673   57.5987 H       1  ZINC000444205493    0.0700
     37 H37       -12.7457   -2.9965   58.1425 H       1  ZINC000444205493    0.0700
     38 H38       -14.7575   -2.6827   59.9232 H       1  ZINC000444205493    0.0700
     39 H39       -13.0803   -2.2819   60.4191 H       1  ZINC000444205493    0.0700
     40 H40       -13.1983   -0.2425   61.6915 H       1  ZINC000444205493    0.0500
     41 H41       -14.4645    0.9691   61.3796 H       1  ZINC000444205493    0.0500
     42 H42       -14.9120   -0.6675   61.9176 H       1  ZINC000444205493    0.0500
     43 H43       -12.4256    0.5535   59.6293 H       1  ZINC000444205493    0.0700
     44 H44       -13.7046    1.0268   58.4740 H       1  ZINC000444205493    0.0700
     45 H45       -13.0285    0.7237   56.5279 H       1  ZINC000444205493    0.0700
     46 H46       -13.7968   -0.8369   56.1254 H       1  ZINC000444205493    0.0800
     47 H47        -8.9336   -0.9087   52.8798 H       1  ZINC000444205493    0.1500
@<TRIPOS>BOND
     1     1     2    1
     2     1    26    1
     3     1    27    1
     4     1    28    1
     5     2     3    2
     6     2     4   am
     7     4     5    1
     8     4    29    1
     9     5    24   ar
    10     5     6   ar
    11     6     7   ar
    12     6    30    1
    13     7     8   ar
    14     7    31    1
    15     8     9    1
    16     8    23   ar
    17     9    10    2
    18     9    11    2
    19     9    12   am
    20    12    22    1
    21    12    13    1
    22    13    14    1
    23    13    32    1
    24    13    33    1
    25    14    15    1
    26    14    34    1
    27    14    35    1
    28    15    21    1
    29    15    16    1
    30    15    22    1
    31    16    17    1
    32    16    36    1
    33    16    37    1
    34    17    18    1
    35    17    38    1
    36    17    39    1
    37    18    19    1
    38    18    20    1
    39    18    21    1
    40    20    40    1
    41    20    41    1
    42    20    42    1
    43    21    43    1
    44    21    44    1
    45    22    45    1
    46    22    46    1
    47    23    24   ar
    48    23    47    1
    49    24    25    1
@<TRIPOS>SUBSTRUCTURE
     1 ZINC000444205493        1 TEMP              0 ****  ****    0 ROOT


##########                                Name:    ZINC000680410869
##########                DOCK_Rotatable_Bonds:                   6
##########                         Heavy_Atoms:                  24
##########                    Molecular_Weight:             335.354
##########                DOCK_Rotatable_Bonds:                   6
##########                       Formal_Charge:        -1.04308e-07
##########                     HBond_Acceptors:                   7
##########                        HBond_Donors:                   0
##########                         Heavy_Atoms:                  24
##########                          Grid_Score:          -24.305689
##########                     Grid_vdw_energy:          -24.193048
##########                      Grid_es_energy:           -0.112640
##########           Internal_energy_repulsive:            9.232306

@<TRIPOS>MOLECULE
ZINC000680410869
 43 45 1 0 0
SMALL
USER_CHARGES


@<TRIPOS>ATOM
      1 O1         -6.4807    2.0108   56.9201 O.2     1  ZINC000680410869   -0.5200
      2 C2         -7.5887    1.5241   57.0370 C.2     1  ZINC000680410869    0.6100
      3 C3         -8.4388    1.3283   55.8451 C.2     1  ZINC000680410869    0.0100
      4 N4         -8.6935    0.1839   55.2427 N.2     1  ZINC000680410869   -0.2500
      5 N5         -9.4708    0.3777   54.2384 N.pl3   1  ZINC000680410869   -0.3500
      6 C6         -9.9599   -0.6731   53.3424 C.3     1  ZINC000680410869    0.5000
      7 F7         -8.8727   -1.3660   52.7990 F       1  ZINC000680410869   -0.1600
      8 F8        -10.7664   -1.5614   54.0619 F       1  ZINC000680410869   -0.1700
      9 C9         -9.7728    1.6891   54.1279 C.2     1  ZINC000680410869    0.0100
     10 C10        -9.1396    2.3328   55.1364 C.2     1  ZINC000680410869   -0.1700
     11 N11        -8.0390    1.1583   58.2535 N.am    1  ZINC000680410869   -0.6000
     12 C12        -7.2104    1.3435   59.4553 C.3     1  ZINC000680410869    0.0800
     13 C13        -7.1724    0.0186   60.2253 C.3     1  ZINC000680410869    0.0500
     14 O14        -8.5095   -0.4394   60.4405 O.3     1  ZINC000680410869   -0.3700
     15 C15        -9.2307   -0.7247   59.2396 C.3     1  ZINC000680410869    0.0800
     16 H16        -8.6880   -1.4693   58.6571 H       1  ZINC000680410869    0.0600
     17 C17       -10.6182   -1.2643   59.5928 C.3     1  ZINC000680410869   -0.1000
     18 C18       -10.9854   -2.3960   58.6309 C.3     1  ZINC000680410869   -0.0800
     19 C19       -12.4751   -2.3980   58.4029 C.ar    1  ZINC000680410869   -0.0800
     20 C20       -13.3392   -2.4313   59.4813 C.ar    1  ZINC000680410869   -0.1200
     21 C21       -14.7057   -2.4332   59.2721 C.ar    1  ZINC000680410869   -0.1200
     22 C22       -15.2079   -2.4011   57.9846 C.ar    1  ZINC000680410869   -0.1300
     23 C23       -14.3437   -2.3669   56.9063 C.ar    1  ZINC000680410869   -0.1200
     24 C24       -12.9773   -2.3607   57.1155 C.ar    1  ZINC000680410869   -0.1200
     25 C25        -9.3764    0.5674   58.4198 C.3     1  ZINC000680410869    0.0600
     26 H26       -10.5424   -0.2231   52.5386 H       1  ZINC000680410869    0.1700
     27 H27       -10.4051    2.1400   53.3773 H       1  ZINC000680410869    0.1900
     28 H28        -9.1602    3.3909   55.3514 H       1  ZINC000680410869    0.1700
     29 H29        -6.1994    1.6279   59.1638 H       1  ZINC000680410869    0.1000
     30 H30        -7.6442    2.1212   60.0839 H       1  ZINC000680410869    0.0800
     31 H31        -6.6222   -0.7232   59.6464 H       1  ZINC000680410869    0.0600
     32 H32        -6.6803    0.1698   61.1861 H       1  ZINC000680410869    0.1100
     33 H33       -10.6112   -1.6437   60.6146 H       1  ZINC000680410869    0.0800
     34 H34       -11.3521   -0.4629   59.5079 H       1  ZINC000680410869    0.0800
     35 H35       -10.4726   -2.2461   57.6808 H       1  ZINC000680410869    0.0700
     36 H36       -10.6823   -3.3508   59.0607 H       1  ZINC000680410869    0.0800
     37 H37       -12.9469   -2.4564   60.4872 H       1  ZINC000680410869    0.1200
     38 H38       -15.3809   -2.4599   60.1146 H       1  ZINC000680410869    0.1200
     39 H39       -16.2755   -2.4033   57.8212 H       1  ZINC000680410869    0.1200
     40 H40       -14.7360   -2.3422   55.9003 H       1  ZINC000680410869    0.1200
     41 H41       -12.3020   -2.3339   56.2731 H       1  ZINC000680410869    0.1200
     42 H42       -10.0288    1.2643   58.9459 H       1  ZINC000680410869    0.0800
     43 H43        -9.7981    0.3359   57.4417 H       1  ZINC000680410869    0.1300
@<TRIPOS>BOND
     1     1     2    2
     2     2     3    1
     3     2    11   am
     4     3    10    1
     5     3     4    2
     6     4     5    1
     7     5     6    1
     8     5     9    1
     9     6     7    1
    10     6     8    1
    11     6    26    1
    12     9    10    2
    13     9    27    1
    14    10    28    1
    15    11    25    1
    16    11    12    1
    17    12    13    1
    18    12    29    1
    19    12    30    1
    20    13    14    1
    21    13    31    1
    22    13    32    1
    23    14    15    1
    24    15    16    1
    25    15    17    1
    26    15    25    1
    27    17    18    1
    28    17    33    1
    29    17    34    1
    30    18    19    1
    31    18    35    1
    32    18    36    1
    33    19    24   ar
    34    19    20   ar
    35    20    21   ar
    36    20    37    1
    37    21    22   ar
    38    21    38    1
    39    22    23   ar
    40    22    39    1
    41    23    24   ar
    42    23    40    1
    43    24    41    1
    44    25    42    1
    45    25    43    1
@<TRIPOS>SUBSTRUCTURE
     1 ZINC000680410869        1 TEMP              0 ****  ****    0 ROOT


##########                                Name:    ZINC000426607143
##########                DOCK_Rotatable_Bonds:                   3
##########                         Heavy_Atoms:                  25
##########                    Molecular_Weight:             419.302
##########                DOCK_Rotatable_Bonds:                   3
##########                       Formal_Charge:         1.49012e-07
##########                     HBond_Acceptors:                   7
##########                        HBond_Donors:                   0
##########                         Heavy_Atoms:                  25
##########                          Grid_Score:          -24.299021
##########                     Grid_vdw_energy:          -24.576864
##########                      Grid_es_energy:            0.277843
##########           Internal_energy_repulsive:           30.174692

@<TRIPOS>MOLECULE
ZINC000426607143
 40 43 1 0 0
SMALL
USER_CHARGES


@<TRIPOS>ATOM
      1 C1         -7.9439    0.1842   53.0905 C.3     1  ZINC000426607143   -0.0900
      2 C2         -6.7622    0.9926   52.6199 C.2     1  ZINC000426607143    0.1600
      3 N3         -6.2104    0.7804   51.4645 N.2     1  ZINC000426607143   -0.4600
      4 S4         -4.9280    1.8775   51.3028 S.3     1  ZINC000426607143    0.2900
      5 C5         -5.1490    2.6344   52.8317 C.2     1  ZINC000426607143   -0.1300
      6 C6         -4.3383    3.7620   53.4171 C.3     1  ZINC000426607143   -0.0800
      7 C7         -6.2158    2.0034   53.3993 C.2     1  ZINC000426607143   -0.1200
      8 C8         -6.7419    2.3598   54.7395 C.2     1  ZINC000426607143    0.2500
      9 N9         -6.2712    3.2827   55.5385 N.2     1  ZINC000426607143   -0.3700
     10 O10        -6.9261    3.3241   56.5585 O.3     1  ZINC000426607143    0.0900
     11 C11        -7.9024    2.4122   56.5134 C.2     1  ZINC000426607143    0.2000
     12 C12        -8.9298    2.1473   57.5835 C.3     1  ZINC000426607143   -0.0300
     13 H13        -9.7699    2.8344   57.4829 H       1  ZINC000426607143    0.1600
     14 C14        -9.4180    0.6817   57.5142 C.3     1  ZINC000426607143   -0.1200
     15 C15        -9.6042    0.3407   59.0093 C.3     1  ZINC000426607143    0.1000
     16 N16        -8.6966    1.2396   59.7320 N.am    1  ZINC000426607143   -0.5800
     17 C17        -8.2895    1.0520   61.0579 C.ar    1  ZINC000426607143    0.1700
     18 C18        -7.1904    0.2530   61.3417 C.ar    1  ZINC000426607143   -0.1000
     19 C19        -6.7909    0.0697   62.6515 C.ar    1  ZINC000426607143   -0.1000
     20 C20        -7.4848    0.6804   63.6796 C.ar    1  ZINC000426607143   -0.1000
     21 C21        -8.5803    1.4771   63.4010 C.ar    1  ZINC000426607143   -0.0900
     22 C22        -8.9813    1.6696   62.0929 C.ar    1  ZINC000426607143   -0.0800
     23 Br23      -10.4795    2.7590   61.7125 Br      1  ZINC000426607143   -0.0400
     24 C24        -8.3073    2.2696   58.9570 C.2     1  ZINC000426607143    0.5300
     25 O25        -7.5639    3.1612   59.3083 O.2     1  ZINC000426607143   -0.4900
     26 N26        -7.8016    1.7956   55.3623 N.2     1  ZINC000426607143   -0.4600
     27 H27        -8.8662    0.6685   52.7700 H       1  ZINC000426607143    0.0900
     28 H28        -7.8921   -0.8174   52.6636 H       1  ZINC000426607143    0.0800
     29 H29        -7.9279    0.1168   54.1783 H       1  ZINC000426607143    0.1100
     30 H30        -3.5563    4.0502   52.7146 H       1  ZINC000426607143    0.0800
     31 H31        -4.9883    4.6158   53.6077 H       1  ZINC000426607143    0.0900
     32 H32        -3.8840    3.4351   54.3525 H       1  ZINC000426607143    0.0900
     33 H33       -10.3638    0.6106   56.9771 H       1  ZINC000426607143    0.1100
     34 H34        -8.6633    0.0404   57.0589 H       1  ZINC000426607143    0.1000
     35 H35       -10.6354    0.5227   59.3121 H       1  ZINC000426607143    0.0900
     36 H36        -9.3334   -0.6985   59.1958 H       1  ZINC000426607143    0.0900
     37 H37        -6.6481   -0.2250   60.5394 H       1  ZINC000426607143    0.1400
     38 H38        -5.9358   -0.5518   62.8725 H       1  ZINC000426607143    0.1400
     39 H39        -7.1707    0.5347   64.7026 H       1  ZINC000426607143    0.1400
     40 H40        -9.1202    1.9528   64.2064 H       1  ZINC000426607143    0.1400
@<TRIPOS>BOND
     1     1     2    1
     2     1    27    1
     3     1    28    1
     4     1    29    1
     5     2     7    1
     6     2     3    2
     7     3     4    1
     8     4     5    1
     9     5     6    1
    10     5     7    2
    11     6    30    1
    12     6    31    1
    13     6    32    1
    14     7     8    1
    15     8    26    1
    16     8     9    2
    17     9    10    1
    18    10    11    1
    19    11    12    1
    20    11    26    2
    21    12    13    1
    22    12    24    1
    23    12    14    1
    24    14    15    1
    25    14    33    1
    26    14    34    1
    27    15    16    1
    28    15    35    1
    29    15    36    1
    30    16    17    1
    31    16    24   am
    32    17    22   ar
    33    17    18   ar
    34    18    19   ar
    35    18    37    1
    36    19    20   ar
    37    19    38    1
    38    20    21   ar
    39    20    39    1
    40    21    22   ar
    41    21    40    1
    42    22    23    1
    43    24    25    2
@<TRIPOS>SUBSTRUCTURE
     1 ZINC000426607143        1 TEMP              0 ****  ****    0 ROOT


##########                                Name:    ZINC000478980774
##########                DOCK_Rotatable_Bonds:                   4
##########                         Heavy_Atoms:                  26
##########                    Molecular_Weight:             401.818
##########                DOCK_Rotatable_Bonds:                   4
##########                       Formal_Charge:          -0.0100001
##########                     HBond_Acceptors:                   9
##########                        HBond_Donors:                   1
##########                         Heavy_Atoms:                  26
##########                          Grid_Score:          -24.262375
##########                     Grid_vdw_energy:          -24.147419
##########                      Grid_es_energy:           -0.114956
##########           Internal_energy_repulsive:            5.650453

@<TRIPOS>MOLECULE
ZINC000478980774
 40 42 1 0 0
SMALL
USER_CHARGES


@<TRIPOS>ATOM
      1 C1        -11.4214    1.8391   57.3152 C.3     1  ZINC000478980774   -0.1400
      2 C2        -11.5417    0.9673   56.0636 C.3     1  ZINC000478980774   -0.4600
      3 H3        -12.1964    1.4559   55.3420 H       1  ZINC000478980774    0.1500
      4 C4        -10.1775    0.7736   55.4534 C.2     1  ZINC000478980774    0.5400
      5 O5         -9.2536    0.3940   56.1415 O.2     1  ZINC000478980774   -0.5000
      6 N6         -9.9840    1.0221   54.1429 N.am    1  ZINC000478980774   -0.6600
      7 C7         -8.7159    0.8419   53.5755 C.ar    1  ZINC000478980774    0.1600
      8 C8         -8.3722   -0.3820   53.0183 C.ar    1  ZINC000478980774   -0.1200
      9 C9         -7.1211   -0.5614   52.4587 C.ar    1  ZINC000478980774   -0.0600
     10 C10        -6.2069    0.4791   52.4521 C.ar    1  ZINC000478980774    0.0100
     11 O11        -4.9305    0.5584   51.9722 O.3     1  ZINC000478980774   -0.2900
     12 C12        -4.6432    1.9660   51.8754 C.3     1  ZINC000478980774    0.5700
     13 F13        -3.2956    2.2132   52.1584 F       1  ZINC000478980774   -0.1100
     14 F14        -4.9737    2.4488   50.6047 F       1  ZINC000478980774   -0.1500
     15 O15        -5.4879    2.5576   52.8802 O.3     1  ZINC000478980774   -0.2800
     16 C16        -6.5492    1.7090   53.0104 C.ar    1  ZINC000478980774    0.0500
     17 C17        -7.8045    1.8895   53.5655 C.ar    1  ZINC000478980774   -0.0900
     18 S18       -12.2368   -0.6463   56.5151 S.o     1  ZINC000478980774    1.3000
     19 O19       -11.3672   -1.2971   57.4312 O.2     1  ZINC000478980774   -0.7800
     20 C20       -13.7812   -0.2039   57.3576 C.3     1  ZINC000478980774   -0.4300
     21 C21       -14.4884   -1.4585   57.8015 C.ar    1  ZINC000478980774   -0.0600
     22 C22       -15.1476   -2.2446   56.8758 C.ar    1  ZINC000478980774   -0.1100
     23 C23       -15.7965   -3.3957   57.2828 C.ar    1  ZINC000478980774   -0.1100
     24 C24       -15.7867   -3.7605   58.6160 C.ar    1  ZINC000478980774   -0.1100
     25 C25       -15.1275   -2.9749   59.5430 C.ar    1  ZINC000478980774   -0.1100
     26 C26       -14.4730   -1.8265   59.1353 C.ar    1  ZINC000478980774   -0.0300
     27 Cl27      -13.6450   -0.8395   60.2989 Cl      1  ZINC000478980774   -0.0600
     28 H28       -12.4081    1.9792   57.7565 H       1  ZINC000478980774    0.0800
     29 H29       -10.7667    1.3504   58.0367 H       1  ZINC000478980774    0.0700
     30 H30       -11.0037    2.8086   57.0439 H       1  ZINC000478980774    0.0700
     31 H31       -10.7228    1.3257   53.5926 H       1  ZINC000478980774    0.4200
     32 H32        -9.0830   -1.1952   53.0224 H       1  ZINC000478980774    0.1500
     33 H33        -6.8559   -1.5147   52.0260 H       1  ZINC000478980774    0.1500
     34 H34        -8.0735    2.8435   53.9944 H       1  ZINC000478980774    0.1600
     35 H35       -13.5567    0.4136   58.2273 H       1  ZINC000478980774    0.1100
     36 H36       -14.4222    0.3516   56.6732 H       1  ZINC000478980774    0.1300
     37 H37       -15.1563   -1.9596   55.8341 H       1  ZINC000478980774    0.1400
     38 H38       -16.3117   -4.0097   56.5589 H       1  ZINC000478980774    0.1300
     39 H39       -16.2943   -4.6593   58.9335 H       1  ZINC000478980774    0.1300
     40 H40       -15.1199   -3.2602   60.5846 H       1  ZINC000478980774    0.1300
@<TRIPOS>BOND
     1     1     2    1
     2     1    28    1
     3     1    29    1
     4     1    30    1
     5     2     3    1
     6     2     4    1
     7     2    18    1
     8     4     5    2
     9     4     6   am
    10     6     7    1
    11     6    31    1
    12     7    17   ar
    13     7     8   ar
    14     8     9   ar
    15     8    32    1
    16     9    10   ar
    17     9    33    1
    18    10    16   ar
    19    10    11    1
    20    11    12    1
    21    12    13    1
    22    12    14    1
    23    12    15    1
    24    15    16    1
    25    16    17   ar
    26    17    34    1
    27    18    19    2
    28    18    20    1
    29    20    21    1
    30    20    35    1
    31    20    36    1
    32    21    26   ar
    33    21    22   ar
    34    22    23   ar
    35    22    37    1
    36    23    24   ar
    37    23    38    1
    38    24    25   ar
    39    24    39    1
    40    25    26   ar
    41    25    40    1
    42    26    27    1
@<TRIPOS>SUBSTRUCTURE
     1 ZINC000478980774        1 TEMP              0 ****  ****    0 ROOT


##########                                Name:    ZINC000915315870
##########                DOCK_Rotatable_Bonds:                   4
##########                         Heavy_Atoms:                  24
##########                    Molecular_Weight:             357.381
##########                DOCK_Rotatable_Bonds:                   4
##########                       Formal_Charge:           0.0300002
##########                     HBond_Acceptors:                   9
##########                        HBond_Donors:                   1
##########                         Heavy_Atoms:                  24
##########                          Grid_Score:          -24.196728
##########                     Grid_vdw_energy:          -23.841339
##########                      Grid_es_energy:           -0.355388
##########           Internal_energy_repulsive:           35.596458

@<TRIPOS>MOLECULE
ZINC000915315870
 41 43 1 0 0
SMALL
USER_CHARGES


@<TRIPOS>ATOM
      1 C1         -5.5715    0.3802   52.5414 C.3     1  ZINC000915315870    0.0300
      2 O2         -6.4475    1.3412   53.1338 O.3     1  ZINC000915315870   -0.3200
      3 C3         -7.7458    0.9722   53.3018 C.ar    1  ZINC000915315870    0.0800
      4 C4         -8.1612   -0.2994   52.9303 C.ar    1  ZINC000915315870    0.0900
      5 F5         -7.2760   -1.1725   52.4018 F       1  ZINC000915315870   -0.1100
      6 C6         -9.4827   -0.6718   53.1026 C.ar    1  ZINC000915315870   -0.0500
      7 C7        -10.3892    0.2210   53.6434 C.ar    1  ZINC000915315870   -0.6300
      8 S8        -12.0712   -0.2568   53.8605 S.o2    1  ZINC000915315870    2.7000
      9 O9        -12.8601    0.7972   53.3256 O.2     1  ZINC000915315870   -0.9400
     10 O10       -12.1667   -1.6026   53.4144 O.2     1  ZINC000915315870   -0.9400
     11 N11       -12.3672   -0.2821   55.4896 N.am    1  ZINC000915315870   -1.1100
     12 C12       -11.5946   -1.1711   56.3608 C.3     1  ZINC000915315870    0.2400
     13 H13       -11.0855   -1.9240   55.7593 H       1  ZINC000915315870    0.0900
     14 C14       -10.5631   -0.3545   57.1496 C.3     1  ZINC000915315870   -0.1400
     15 C15        -9.9262   -1.2322   58.2292 C.3     1  ZINC000915315870   -0.1100
     16 C16       -10.9426   -1.4991   59.3464 C.3     1  ZINC000915315870   -0.0400
     17 C17       -12.2210   -1.9919   58.7129 C.2     1  ZINC000915315870    0.0900
     18 N18       -13.2184   -2.6048   59.2812 N.2     1  ZINC000915315870   -0.2900
     19 N19       -14.1838   -2.8718   58.2986 N.pl3   1  ZINC000915315870   -0.3800
     20 C20       -15.4651   -3.5492   58.5118 C.3     1  ZINC000915315870    0.1000
     21 C21       -13.7240   -2.3933   57.1206 C.2     1  ZINC000915315870    0.0800
     22 C22       -12.5167   -1.8451   57.3467 C.2     1  ZINC000915315870   -0.2500
     23 C23        -9.9786    1.4878   54.0147 C.ar    1  ZINC000915315870   -0.0500
     24 C24        -8.6572    1.8644   53.8504 C.ar    1  ZINC000915315870    0.1000
     25 F25        -8.2567    3.1025   54.2135 F       1  ZINC000915315870   -0.1100
     26 H26        -4.5688    0.8009   52.4654 H       1  ZINC000915315870    0.1100
     27 H27        -5.5433   -0.5162   53.1609 H       1  ZINC000915315870    0.0600
     28 H28        -5.9339    0.1228   51.5462 H       1  ZINC000915315870    0.0500
     29 H29        -9.8065   -1.6609   52.8138 H       1  ZINC000915315870    0.1700
     30 H30       -13.0522    0.2918   55.8671 H       1  ZINC000915315870    0.4200
     31 H31        -9.7893    0.0046   56.4710 H       1  ZINC000915315870    0.0900
     32 H32       -11.0565    0.4968   57.6186 H       1  ZINC000915315870    0.0800
     33 H33        -9.6143   -2.1793   57.7891 H       1  ZINC000915315870    0.0700
     34 H34        -9.0568   -0.7225   58.6444 H       1  ZINC000915315870    0.0800
     35 H35       -10.5523   -2.2575   60.0250 H       1  ZINC000915315870    0.0800
     36 H36       -11.1357   -0.5776   59.8957 H       1  ZINC000915315870    0.0900
     37 H37       -16.2293   -2.8120   58.7578 H       1  ZINC000915315870    0.0800
     38 H38       -15.7511   -4.0798   57.6036 H       1  ZINC000915315870    0.0900
     39 H39       -15.3682   -4.2598   59.3326 H       1  ZINC000915315870    0.0900
     40 H40       -14.2338   -2.4425   56.1697 H       1  ZINC000915315870    0.1700
     41 H41       -10.6890    2.1829   54.4372 H       1  ZINC000915315870    0.1700
@<TRIPOS>BOND
     1     1     2    1
     2     1    26    1
     3     1    27    1
     4     1    28    1
     5     2     3    1
     6     3    24   ar
     7     3     4   ar
     8     4     5    1
     9     4     6   ar
    10     6     7   ar
    11     6    29    1
    12     7     8    1
    13     7    23   ar
    14     8     9    2
    15     8    10    2
    16     8    11   am
    17    11    12    1
    18    11    30    1
    19    12    13    1
    20    12    22    1
    21    12    14    1
    22    14    15    1
    23    14    31    1
    24    14    32    1
    25    15    16    1
    26    15    33    1
    27    15    34    1
    28    16    17    1
    29    16    35    1
    30    16    36    1
    31    17    22    1
    32    17    18    2
    33    18    19    1
    34    19    20    1
    35    19    21    1
    36    20    37    1
    37    20    38    1
    38    20    39    1
    39    21    22    2
    40    21    40    1
    41    23    24   ar
    42    23    41    1
    43    24    25    1
@<TRIPOS>SUBSTRUCTURE
     1 ZINC000915315870        1 TEMP              0 ****  ****    0 ROOT


##########                                Name:    ZINC001231746020
##########                DOCK_Rotatable_Bonds:                   3
##########                         Heavy_Atoms:                  19
##########                    Molecular_Weight:             348.667
##########                DOCK_Rotatable_Bonds:                   3
##########                       Formal_Charge:          -0.0399997
##########                     HBond_Acceptors:                   4
##########                        HBond_Donors:                   2
##########                         Heavy_Atoms:                  19
##########                          Grid_Score:          -24.194359
##########                     Grid_vdw_energy:          -22.297606
##########                      Grid_es_energy:           -1.896754
##########           Internal_energy_repulsive:           11.206582

@<TRIPOS>MOLECULE
ZINC001231746020
 38 39 1 0 0
SMALL
USER_CHARGES


@<TRIPOS>ATOM
      1 C1         -0.4095    2.8294   57.3692 C.3     1  ZINC001231746020   -0.1500
      2 C2         -1.1053    3.2437   56.0711 C.3     1  ZINC001231746020   -0.0900
      3 H3         -1.4452    2.3550   55.5392 H       1  ZINC001231746020    0.0800
      4 C4         -2.2851    4.1229   56.3896 C.3     1  ZINC001231746020   -0.1400
      5 C5         -3.4437    3.9833   55.3858 C.3     1  ZINC001231746020   -0.0100
      6 N6         -3.0008    3.9266   53.9761 N.4     1  ZINC001231746020   -0.3800
      7 H7         -2.6634    2.9971   53.7751 H       1  ZINC001231746020    0.4100
      8 C8         -4.1457    4.2183   53.1033 C.3     1  ZINC001231746020    0.0700
      9 C9         -5.2291    3.1974   53.3377 C.ar    1  ZINC001231746020   -0.3100
     10 C10        -5.1878    1.9834   52.6777 C.ar    1  ZINC001231746020   -0.0300
     11 C11        -6.1803    1.0447   52.8912 C.ar    1  ZINC001231746020   -0.1600
     12 Cl12       -6.1277   -0.4794   52.0619 Cl      1  ZINC001231746020   -0.0800
     13 C13        -7.2189    1.3225   53.7689 C.ar    1  ZINC001231746020    0.3100
     14 O14        -8.1958    0.4013   53.9812 O.3     1  ZINC001231746020   -0.6300
     15 C15        -7.2580    2.5422   54.4298 C.ar    1  ZINC001231746020   -0.2100
     16 Br16       -8.6711    2.9253   55.6266 Br      1  ZINC001231746020   -0.0600
     17 C17        -6.2598    3.4744   54.2170 C.ar    1  ZINC001231746020   -0.0200
     18 C18        -1.9487    4.8755   53.7034 C.3     1  ZINC001231746020   -0.0200
     19 C19        -0.6057    4.1352   53.8127 C.3     1  ZINC001231746020   -0.1800
     20 C20        -0.1155    4.0374   55.1820 C.3     1  ZINC001231746020    0.1000
     21 H21         0.8498    3.5312   55.1812 H       1  ZINC001231746020    0.0700
     22 O22         0.0457    5.3523   55.7177 O.3     1  ZINC001231746020   -0.5600
     23 H23        -1.1107    2.2811   57.9983 H       1  ZINC001231746020    0.0600
     24 H24        -0.0663    3.7190   57.8974 H       1  ZINC001231746020    0.0700
     25 H25         0.4444    2.1929   57.1366 H       1  ZINC001231746020    0.0600
     26 H26        -2.6520    3.8679   57.3837 H       1  ZINC001231746020    0.1000
     27 H27        -1.9546    5.1615   56.3961 H       1  ZINC001231746020    0.1000
     28 H28        -3.9958    3.0718   55.6148 H       1  ZINC001231746020    0.1200
     29 H29        -4.1144    4.8339   55.5067 H       1  ZINC001231746020    0.1200
     30 H30        -4.5295    5.2135   53.3277 H       1  ZINC001231746020    0.1200
     31 H31        -3.8278    4.1779   52.0614 H       1  ZINC001231746020    0.1200
     32 H32        -4.3793    1.7680   51.9947 H       1  ZINC001231746020    0.1100
     33 H33        -6.2870    4.4218   54.7350 H       1  ZINC001231746020    0.1100
     34 H34        -2.0670    5.2784   52.6976 H       1  ZINC001231746020    0.1400
     35 H35        -1.9846    5.6855   54.4318 H       1  ZINC001231746020    0.1300
     36 H36        -0.7265    3.1292   53.4110 H       1  ZINC001231746020    0.0900
     37 H37         0.1357    4.6642   53.2139 H       1  ZINC001231746020    0.1100
     38 H38        -0.7744    5.8628   55.7607 H       1  ZINC001231746020    0.3900
@<TRIPOS>BOND
     1     1     2    1
     2     1    23    1
     3     1    24    1
     4     1    25    1
     5     2     3    1
     6     2    20    1
     7     2     4    1
     8     4     5    1
     9     4    26    1
    10     4    27    1
    11     5     6    1
    12     5    28    1
    13     5    29    1
    14     6     7    1
    15     6     8    1
    16     6    18    1
    17     8     9    1
    18     8    30    1
    19     8    31    1
    20     9    17   ar
    21     9    10   ar
    22    10    11   ar
    23    10    32    1
    24    11    12    1
    25    11    13   ar
    26    13    14    1
    27    13    15   ar
    28    15    16    1
    29    15    17   ar
    30    17    33    1
    31    18    19    1
    32    18    34    1
    33    18    35    1
    34    19    20    1
    35    19    36    1
    36    19    37    1
    37    20    21    1
    38    20    22    1
    39    22    38    1
@<TRIPOS>SUBSTRUCTURE
     1 ZINC001231746020        1 TEMP              0 ****  ****    0 ROOT


##########                                Name:    ZINC001708427409
##########                DOCK_Rotatable_Bonds:                   6
##########                         Heavy_Atoms:                  24
##########                    Molecular_Weight:             334.505
##########                DOCK_Rotatable_Bonds:                   6
##########                       Formal_Charge:          -0.0200006
##########                     HBond_Acceptors:                   5
##########                        HBond_Donors:                   1
##########                         Heavy_Atoms:                  24
##########                          Grid_Score:          -24.158916
##########                     Grid_vdw_energy:          -24.108051
##########                      Grid_es_energy:           -0.050864
##########           Internal_energy_repulsive:           21.680122

@<TRIPOS>MOLECULE
ZINC001708427409
 58 60 1 0 0
SMALL
USER_CHARGES


@<TRIPOS>ATOM
      1 C1        -12.2118   -1.7740   58.2619 C.3     1  ZINC001708427409   -0.1500
      2 C2        -10.9764   -0.9359   57.9274 C.3     1  ZINC001708427409   -0.1200
      3 C3        -10.3287   -1.4702   56.6484 C.3     1  ZINC001708427409    0.0000
      4 H4        -11.1053   -1.7996   55.9581 H       1  ZINC001708427409    0.0800
      5 C5         -9.4182   -2.6507   56.9925 C.3     1  ZINC001708427409   -0.1400
      6 C6         -9.5139   -0.3785   56.0040 C.2     1  ZINC001708427409    0.1800
      7 N7         -8.6928    0.4321   56.6095 N.2     1  ZINC001708427409   -0.2800
      8 N8         -8.1645    1.2395   55.7604 N.2     1  ZINC001708427409   -0.3200
      9 C9         -8.6239    0.9853   54.5579 C.2     1  ZINC001708427409    0.3600
     10 N10        -8.2843    1.6481   53.3891 N.3     1  ZINC001708427409   -0.4200
     11 C11        -7.0389    1.0841   52.7984 C.3     1  ZINC001708427409    0.0400
     12 C12        -6.4852    2.2100   51.8977 C.3     1  ZINC001708427409   -0.0900
     13 H13        -6.7827    2.0472   50.8619 H       1  ZINC001708427409    0.0900
     14 C14        -4.9606    2.2774   52.0077 C.3     1  ZINC001708427409   -0.1500
     15 C15        -7.1257    3.5140   52.4443 C.3     1  ZINC001708427409   -0.0800
     16 H16        -6.3620    4.2392   52.7249 H       1  ZINC001708427409    0.0900
     17 C17        -8.0288    4.0680   51.3419 C.3     1  ZINC001708427409   -0.1100
     18 C18        -8.9266    5.1656   51.9122 C.3     1  ZINC001708427409   -0.1200
     19 C19        -9.8736    4.5355   52.9311 C.3     1  ZINC001708427409   -0.1100
     20 C20        -9.0944    3.8985   54.0637 C.3     1  ZINC001708427409   -0.1000
     21 C21        -7.9202    3.0548   53.6641 C.3     1  ZINC001708427409    0.1000
     22 H22        -7.2350    3.0370   54.5117 H       1  ZINC001708427409    0.0600
     23 N23        -9.4946   -0.0587   54.6747 N.pl3   1  ZINC001708427409   -0.4700
     24 C24       -10.2582   -0.6980   53.6001 C.3     1  ZINC001708427409    0.0800
     25 C25       -11.4783    0.1606   53.2609 C.3     1  ZINC001708427409    0.1200
     26 C26       -12.4595   -0.6577   52.4190 C.3     1  ZINC001708427409   -0.1800
     27 C27       -12.1640    0.6059   54.5540 C.3     1  ZINC001708427409   -0.1500
     28 O28       -11.0610    1.3107   52.5225 O.3     1  ZINC001708427409   -0.5400
     29 H29       -11.9170   -2.8127   58.4105 H       1  ZINC001708427409    0.0600
     30 H30       -12.6733   -1.3933   59.1732 H       1  ZINC001708427409    0.0600
     31 H31       -12.9256   -1.7129   57.4404 H       1  ZINC001708427409    0.0500
     32 H32       -11.2712    0.1028   57.7788 H       1  ZINC001708427409    0.0700
     33 H33       -10.2626   -0.9970   58.7489 H       1  ZINC001708427409    0.0800
     34 H34       -10.0074   -3.4403   57.4586 H       1  ZINC001708427409    0.0700
     35 H35        -8.9568   -3.0313   56.0813 H       1  ZINC001708427409    0.0500
     36 H36        -8.6415   -2.3213   57.6827 H       1  ZINC001708427409    0.0700
     37 H37        -6.3233    0.8396   53.5834 H       1  ZINC001708427409    0.0600
     38 H38        -7.2676    0.2000   52.2033 H       1  ZINC001708427409    0.0800
     39 H39        -4.5298    1.3355   51.6682 H       1  ZINC001708427409    0.0600
     40 H40        -4.5873    3.0922   51.3874 H       1  ZINC001708427409    0.0600
     41 H41        -4.6787    2.4526   53.0459 H       1  ZINC001708427409    0.0600
     42 H42        -7.4133    4.4819   50.5430 H       1  ZINC001708427409    0.0600
     43 H43        -8.6477    3.2647   50.9423 H       1  ZINC001708427409    0.0700
     44 H44        -8.3138    5.9228   52.4011 H       1  ZINC001708427409    0.0600
     45 H45        -9.5043    5.6210   51.1079 H       1  ZINC001708427409    0.0600
     46 H46       -10.5300    5.3058   53.3356 H       1  ZINC001708427409    0.0600
     47 H47       -10.4768    3.7736   52.4374 H       1  ZINC001708427409    0.0600
     48 H48        -8.7255    4.6925   54.7130 H       1  ZINC001708427409    0.0600
     49 H49        -9.7795    3.2805   54.6440 H       1  ZINC001708427409    0.0700
     50 H50        -9.6278   -0.7987   52.7166 H       1  ZINC001708427409    0.0900
     51 H51       -10.5875   -1.6848   53.9258 H       1  ZINC001708427409    0.1000
     52 H52       -12.7778   -1.5349   52.9822 H       1  ZINC001708427409    0.0700
     53 H53       -13.3287   -0.0459   52.1772 H       1  ZINC001708427409    0.0700
     54 H54       -11.9710   -0.9749   51.4977 H       1  ZINC001708427409    0.0600
     55 H55       -11.4421    1.1175   55.1906 H       1  ZINC001708427409    0.0700
     56 H56       -12.9833    1.2842   54.3159 H       1  ZINC001708427409    0.0700
     57 H57       -12.5552   -0.2668   55.0771 H       1  ZINC001708427409    0.0700
     58 H58       -11.7847    1.9013   52.2723 H       1  ZINC001708427409    0.3800
@<TRIPOS>BOND
     1     1     2    1
     2     1    29    1
     3     1    30    1
     4     1    31    1
     5     2     3    1
     6     2    32    1
     7     2    33    1
     8     3     4    1
     9     3     5    1
    10     3     6    1
    11     5    34    1
    12     5    35    1
    13     5    36    1
    14     6    23    1
    15     6     7    2
    16     7     8    1
    17     8     9    2
    18     9    10    1
    19     9    23    1
    20    10    21    1
    21    10    11    1
    22    11    12    1
    23    11    37    1
    24    11    38    1
    25    12    13    1
    26    12    14    1
    27    12    15    1
    28    14    39    1
    29    14    40    1
    30    14    41    1
    31    15    16    1
    32    15    21    1
    33    15    17    1
    34    17    18    1
    35    17    42    1
    36    17    43    1
    37    18    19    1
    38    18    44    1
    39    18    45    1
    40    19    20    1
    41    19    46    1
    42    19    47    1
    43    20    21    1
    44    20    48    1
    45    20    49    1
    46    21    22    1
    47    23    24    1
    48    24    25    1
    49    24    50    1
    50    24    51    1
    51    25    26    1
    52    25    27    1
    53    25    28    1
    54    26    52    1
    55    26    53    1
    56    26    54    1
    57    27    55    1
    58    27    56    1
    59    27    57    1
    60    28    58    1
@<TRIPOS>SUBSTRUCTURE
     1 ZINC001708427409        1 TEMP              0 ****  ****    0 ROOT


##########                                Name:    ZINC000338927927
##########                DOCK_Rotatable_Bonds:                   9
##########                         Heavy_Atoms:                  23
##########                    Molecular_Weight:             336.286
##########                DOCK_Rotatable_Bonds:                   9
##########                       Formal_Charge:         -0.00999999
##########                     HBond_Acceptors:                   9
##########                        HBond_Donors:                   2
##########                         Heavy_Atoms:                  23
##########                          Grid_Score:          -24.078520
##########                     Grid_vdw_energy:          -23.769896
##########                      Grid_es_energy:           -0.308625
##########           Internal_energy_repulsive:            5.241914

@<TRIPOS>MOLECULE
ZINC000338927927
 39 39 1 0 0
SMALL
USER_CHARGES


@<TRIPOS>ATOM
      1 C1         -9.8934   -2.7151   57.2967 C.3     1  <0>        -0.1600
      2 C2        -11.2998   -3.2652   57.5423 C.3     1  <0>        -0.1100
      3 C3        -12.2812   -2.1026   57.7032 C.3     1  <0>        -0.1000
      4 H4        -12.0408   -1.3217   56.9819 H       1  <0>         0.1400
      5 C5        -12.1762   -1.5461   59.0998 C.2     1  <0>         0.5200
      6 O6        -12.6458   -2.1603   60.0343 O.2     1  <0>        -0.4700
      7 N7        -11.5604   -0.3659   59.3103 N.am    1  <0>        -0.6700
      8 C8        -11.4628    0.1509   60.6069 C.ar    1  <0>         0.2200
      9 C9        -12.5199    0.8692   61.1499 C.ar    1  <0>        -0.2300
     10 C10       -12.4240    1.3807   62.4325 C.ar    1  <0>         0.1700
     11 F11       -13.4537    2.0793   62.9588 F       1  <0>        -0.1300
     12 C12       -11.2755    1.1770   63.1765 C.ar    1  <0>        -0.2500
     13 C13       -10.2155    0.4588   62.6371 C.ar    1  <0>         0.2600
     14 N14        -9.0560    0.2538   63.3883 N.pl3   1  <0>        -0.7400
     15 C15        -8.1988    1.3895   63.7373 C.3     1  <0>         0.0800
     16 C16        -6.8291    0.8760   64.1852 C.3     1  <0>         0.4500
     17 F17        -6.3116    0.0165   63.2103 F       1  <0>        -0.1800
     18 F18        -5.9601    1.9581   64.3617 F       1  <0>        -0.1700
     19 F19        -6.9630    0.1837   65.3937 F       1  <0>        -0.1800
     20 C20       -10.3118   -0.0592   61.3532 C.ar    1  <0>        -0.2000
     21 C21       -13.6855   -2.5937   57.4625 C.2     1  <0>         0.4600
     22 O22       -14.5416   -1.8219   57.1002 O.2     1  <0>        -0.4600
     23 O23       -13.9853   -3.8884   57.6507 O.3     1  <0>        -0.3500
     24 C24       -15.3574   -4.2908   57.3986 C.3     1  <0>         0.0300
     25 H25        -9.5911   -2.0991   58.1436 H       1  <0>         0.0600
     26 H26        -9.1942   -3.5435   57.1820 H       1  <0>         0.0600
     27 H27        -9.8929   -2.1110   56.3895 H       1  <0>         0.0800
     28 H28       -11.6020   -3.8813   56.6954 H       1  <0>         0.0800
     29 H29       -11.3002   -3.8694   58.4496 H       1  <0>         0.0800
     30 H30       -11.1848    0.1253   58.5629 H       1  <0>         0.4200
     31 H31       -13.4173    1.0293   60.5708 H       1  <0>         0.1400
     32 H32       -11.2027    1.5770   64.1771 H       1  <0>         0.1400
     33 H33        -8.8182   -0.6405   63.6789 H       1  <0>         0.4100
     34 H34        -8.0782    2.0345   62.8669 H       1  <0>         0.1100
     35 H35        -8.6578    1.9554   64.5480 H       1  <0>         0.1100
     36 H36        -9.4888   -0.6177   60.9323 H       1  <0>         0.1500
     37 H37       -15.4635   -5.3590   57.5882 H       1  <0>         0.1000
     38 H38       -16.0255   -3.7367   58.0580 H       1  <0>         0.0600
     39 H39       -15.6134   -4.0789   56.3605 H       1  <0>         0.0600
@<TRIPOS>BOND
     1     1     2    1
     2     1    25    1
     3     1    26    1
     4     1    27    1
     5     2     3    1
     6     2    28    1
     7     2    29    1
     8     3     4    1
     9     3     5    1
    10     3    21    1
    11     5     6    2
    12     5     7   am
    13     7     8    1
    14     7    30    1
    15     8    20   ar
    16     8     9   ar
    17     9    10   ar
    18     9    31    1
    19    10    11    1
    20    10    12   ar
    21    12    13   ar
    22    12    32    1
    23    13    14    1
    24    13    20   ar
    25    14    15    1
    26    14    33    1
    27    15    16    1
    28    15    34    1
    29    15    35    1
    30    16    17    1
    31    16    18    1
    32    16    19    1
    33    20    36    1
    34    21    22    2
    35    21    23    1
    36    23    24    1
    37    24    37    1
    38    24    38    1
    39    24    39    1
@<TRIPOS>SUBSTRUCTURE
     1 <0>         1 TEMP              0 ****  ****    0 ROOT


##########                                Name:    ZINC000656860804
##########                DOCK_Rotatable_Bonds:                   2
##########                         Heavy_Atoms:                  19
##########                    Molecular_Weight:             388.068
##########                DOCK_Rotatable_Bonds:                   2
##########                       Formal_Charge:          8.9407e-08
##########                     HBond_Acceptors:                   8
##########                        HBond_Donors:                   1
##########                         Heavy_Atoms:                  19
##########                          Grid_Score:          -24.021616
##########                     Grid_vdw_energy:          -22.476194
##########                      Grid_es_energy:           -1.545422
##########           Internal_energy_repulsive:           17.579178

@<TRIPOS>MOLECULE
ZINC000656860804
 28 29 1 0 0
SMALL
USER_CHARGES


@<TRIPOS>ATOM
      1 O1         -8.2084   -0.7605   66.7363 O.2     1  ZINC000656860804   -0.5400
      2 C2         -7.7886   -0.0838   65.8216 C.2     1  ZINC000656860804    0.5100
      3 C3         -8.5764   -0.0406   64.5406 C.3     1  ZINC000656860804    0.1100
      4 N4         -8.0638    1.0540   63.7032 N.am    1  ZINC000656860804   -1.0000
      5 S5         -9.0886    2.0662   62.8861 S.o2    1  ZINC000656860804    2.6900
      6 O6         -9.9976    2.5803   63.8497 O.2     1  ZINC000656860804   -0.9200
      7 O7         -8.2699    2.8935   62.0709 O.2     1  ZINC000656860804   -0.9300
      8 C8        -10.0393    1.0698   61.7871 C.ar    1  ZINC000656860804   -0.6500
      9 C9        -11.4126    1.0047   61.9268 C.ar    1  ZINC000656860804    0.0100
     10 C10       -12.1596    0.2224   61.0641 C.ar    1  ZINC000656860804   -0.0400
     11 Cl11      -13.8849    0.1412   61.2393 Cl      1  ZINC000656860804   -0.0200
     12 C12       -11.5309   -0.4952   60.0609 C.ar    1  ZINC000656860804    0.0200
     13 Cl13      -12.4676   -1.4765   58.9776 Cl      1  ZINC000656860804   -0.0100
     14 C14       -10.1562   -0.4295   59.9216 C.ar    1  ZINC000656860804   -0.0900
     15 C15        -9.4112    0.3573   60.7810 C.ar    1  ZINC000656860804    0.0100
     16 Br16       -7.5320    0.4471   60.5908 Br      1  ZINC000656860804    0.0100
     17 C17        -6.6021    1.2140   63.6210 C.3     1  ZINC000656860804    0.0900
     18 C18        -6.0742    1.5083   65.0264 C.3     1  ZINC000656860804    0.0800
     19 N19        -6.6527    0.5923   65.9994 N.am    1  ZINC000656860804   -0.7100
     20 H20        -8.4657   -0.9874   64.0119 H       1  ZINC000656860804    0.1200
     21 H21        -9.6287    0.1333   64.7649 H       1  ZINC000656860804    0.1200
     22 H22       -11.9028    1.5643   62.7098 H       1  ZINC000656860804    0.1700
     23 H23        -9.6653   -0.9893   59.1394 H       1  ZINC000656860804    0.1700
     24 H24        -6.1522    0.2954   63.2440 H       1  ZINC000656860804    0.1000
     25 H25        -6.3596    2.0428   62.9560 H       1  ZINC000656860804    0.1200
     26 H26        -4.9893    1.4026   65.0316 H       1  ZINC000656860804    0.1000
     27 H27        -6.3357    2.5301   65.3012 H       1  ZINC000656860804    0.0800
     28 H28        -6.1752    0.4595   66.8333 H       1  ZINC000656860804    0.4000
@<TRIPOS>BOND
     1     1     2    2
     2     2    19   am
     3     2     3    1
     4     3     4    1
     5     3    20    1
     6     3    21    1
     7     4     5   am
     8     4    17    1
     9     5     6    2
    10     5     7    2
    11     5     8    1
    12     8    15   ar
    13     8     9   ar
    14     9    10   ar
    15     9    22    1
    16    10    11    1
    17    10    12   ar
    18    12    13    1
    19    12    14   ar
    20    14    15   ar
    21    14    23    1
    22    15    16    1
    23    17    18    1
    24    17    24    1
    25    17    25    1
    26    18    19    1
    27    18    26    1
    28    18    27    1
    29    19    28    1
@<TRIPOS>SUBSTRUCTURE
     1 ZINC000656860804        1 TEMP              0 ****  ****    0 ROOT


##########                                Name:    ZINC001173835973
##########                DOCK_Rotatable_Bonds:                   4
##########                         Heavy_Atoms:                  26
##########                    Molecular_Weight:             343.388
##########                DOCK_Rotatable_Bonds:                   4
##########                       Formal_Charge:           -0.010001
##########                     HBond_Acceptors:                   6
##########                        HBond_Donors:                   4
##########                         Heavy_Atoms:                  26
##########                          Grid_Score:          -23.994070
##########                     Grid_vdw_energy:          -24.552071
##########                      Grid_es_energy:            0.558001
##########           Internal_energy_repulsive:          157.663589

@<TRIPOS>MOLECULE
ZINC001173835973
 43 46 1 0 0
SMALL
USER_CHARGES


@<TRIPOS>ATOM
      1 C1         -0.2121    5.7591   55.1371 C.3     1  ZINC001173835973   -0.1700
      2 C2         -0.1995    4.8066   53.9693 C.2     1  ZINC001173835973    0.5100
      3 O3         -1.2444    4.3979   53.5086 O.2     1  ZINC001173835973   -0.5200
      4 N4          0.9730    4.4090   53.4367 N.am    1  ZINC001173835973   -0.6800
      5 C5          0.9848    3.5246   52.3524 C.ar    1  ZINC001173835973    0.1800
      6 C6         -0.2084    3.0081   51.8635 C.ar    1  ZINC001173835973   -0.1900
      7 C7         -0.1980    2.1345   50.7926 C.ar    1  ZINC001173835973   -0.0600
      8 C8          0.9980    1.7724   50.2043 C.ar    1  ZINC001173835973   -0.1900
      9 C9          2.1958    2.2857   50.6887 C.ar    1  ZINC001173835973    0.2200
     10 N10         3.4046    1.9193   50.0938 N.pl3   1  ZINC001173835973   -0.6900
     11 C11         3.4067    1.2858   48.8456 C.ar    1  ZINC001173835973    0.0400
     12 C12         3.2205    2.0219   47.7128 C.ar    1  ZINC001173835973    0.2400
     13 N13         3.0288    3.4050   47.8071 N.pl3   1  ZINC001173835973   -0.8600
     14 C14         3.2201    1.3788   46.4034 C.ar    1  ZINC001173835973   -0.1100
     15 C15         3.0294    2.1316   45.2333 C.ar    1  ZINC001173835973   -0.0600
     16 C16         3.0388    1.4758   44.0320 C.ar    1  ZINC001173835973   -0.1700
     17 C17         3.2338    0.1002   43.9972 C.ar    1  ZINC001173835973    0.1200
     18 N18         3.4116   -0.5968   45.0964 N.ar    1  ZINC001173835973   -0.4400
     19 C19         3.4128   -0.0161   46.2941 C.ar    1  ZINC001173835973    0.1900
     20 C20         3.6132   -0.8084   47.5132 C.ar    1  ZINC001173835973    0.1300
     21 N21         3.7979   -2.1250   47.4477 N.ar    1  ZINC001173835973   -0.4400
     22 C22         3.9785   -2.8463   48.5307 C.ar    1  ZINC001173835973    0.1000
     23 C23         3.9853   -2.2701   49.7952 C.ar    1  ZINC001173835973   -0.1500
     24 C24         3.8007   -0.9204   49.9292 C.ar    1  ZINC001173835973   -0.0700
     25 C25         3.6140   -0.1562   48.7660 C.ar    1  ZINC001173835973   -0.0400
     26 C26         2.1880    3.1673   51.7609 C.ar    1  ZINC001173835973   -0.1900
     27 H27        -1.2426    5.9638   55.4277 H       1  ZINC001173835973    0.1000
     28 H28         0.3201    5.3118   55.9765 H       1  ZINC001173835973    0.0900
     29 H29         0.2767    6.6905   54.8515 H       1  ZINC001173835973    0.0900
     30 H30         1.8087    4.7358   53.8050 H       1  ZINC001173835973    0.4100
     31 H31        -1.1454    3.2891   52.3211 H       1  ZINC001173835973    0.1200
     32 H32        -1.1272    1.7339   50.4150 H       1  ZINC001173835973    0.1200
     33 H33         1.0027    1.0896   49.3677 H       1  ZINC001173835973    0.1200
     34 H34         4.2431    2.1038   50.5453 H       1  ZINC001173835973    0.4000
     35 H35         3.1089    3.8482   48.6662 H       1  ZINC001173835973    0.4100
     36 H36         2.8158    3.9203   47.0134 H       1  ZINC001173835973    0.4000
     37 H37         2.8789    3.2001   45.2802 H       1  ZINC001173835973    0.1400
     38 H38         2.8946    2.0257   43.1136 H       1  ZINC001173835973    0.1400
     39 H39         3.2392   -0.4077   43.0441 H       1  ZINC001173835973    0.1700
     40 H40         4.1247   -3.9122   48.4360 H       1  ZINC001173835973    0.1600
     41 H41         4.1355   -2.8855   50.6699 H       1  ZINC001173835973    0.1400
     42 H42         3.8025   -0.4549   50.9037 H       1  ZINC001173835973    0.1400
     43 H43         3.1169    3.5679   52.1389 H       1  ZINC001173835973    0.1400
@<TRIPOS>BOND
     1     1     2    1
     2     1    27    1
     3     1    28    1
     4     1    29    1
     5     2     3    2
     6     2     4   am
     7     4     5    1
     8     4    30    1
     9     5    26   ar
    10     5     6   ar
    11     6     7   ar
    12     6    31    1
    13     7     8   ar
    14     7    32    1
    15     8     9   ar
    16     8    33    1
    17     9    10    1
    18     9    26   ar
    19    10    11    1
    20    10    34    1
    21    11    25   ar
    22    11    12   ar
    23    12    13    1
    24    12    14   ar
    25    13    35    1
    26    13    36    1
    27    14    19   ar
    28    14    15   ar
    29    15    16   ar
    30    15    37    1
    31    16    17   ar
    32    16    38    1
    33    17    18   ar
    34    17    39    1
    35    18    19   ar
    36    19    20   ar
    37    20    25   ar
    38    20    21   ar
    39    21    22   ar
    40    22    23   ar
    41    22    40    1
    42    23    24   ar
    43    23    41    1
    44    24    25   ar
    45    24    42    1
    46    26    43    1
@<TRIPOS>SUBSTRUCTURE
     1 ZINC001173835973        1 TEMP              0 ****  ****    0 ROOT


##########                                Name:    ZINC000477669194
##########                DOCK_Rotatable_Bonds:                   6
##########                         Heavy_Atoms:                  26
##########                    Molecular_Weight:             387.483
##########                DOCK_Rotatable_Bonds:                   6
##########                       Formal_Charge:         4.47035e-07
##########                     HBond_Acceptors:                   8
##########                        HBond_Donors:                   2
##########                         Heavy_Atoms:                  26
##########                          Grid_Score:          -23.963339
##########                     Grid_vdw_energy:          -23.571337
##########                      Grid_es_energy:           -0.392002
##########           Internal_energy_repulsive:            8.653694

@<TRIPOS>MOLECULE
ZINC000477669194
 43 45 1 0 0
SMALL
USER_CHARGES


@<TRIPOS>ATOM
      1 C1         -7.1523    0.5169   62.0098 C.3     1  ZINC000477669194   -0.0800
      2 C2         -7.1827    1.6721   61.0425 C.2     1  ZINC000477669194    0.0500
      3 N3         -6.9121    1.5851   59.7861 N.2     1  ZINC000477669194   -0.4900
      4 C4         -6.9868    2.6999   59.0735 C.2     1  ZINC000477669194    0.1200
      5 C5         -6.7030    2.7481   57.6186 C.ar    1  ZINC000477669194   -0.0600
      6 C6         -5.7650    3.6475   57.1184 C.ar    1  ZINC000477669194   -0.0800
      7 C7         -5.5043    3.6887   55.7630 C.ar    1  ZINC000477669194   -0.1400
      8 C8         -6.1715    2.8395   54.8984 C.ar    1  ZINC000477669194   -0.0900
      9 C9         -7.1050    1.9427   55.3831 C.ar    1  ZINC000477669194   -0.1300
     10 C10        -7.3726    1.8858   56.7425 C.ar    1  ZINC000477669194    0.1800
     11 N11        -8.3158    0.9793   57.2345 N.am    1  ZINC000477669194   -0.6500
     12 C12        -9.5900    1.3724   57.4302 C.2     1  ZINC000477669194    0.5600
     13 O13        -9.9191    2.5158   57.1786 O.2     1  ZINC000477669194   -0.5200
     14 C14       -10.5854    0.4159   57.9494 C.ar    1  ZINC000477669194   -0.1500
     15 C15       -10.5587   -0.9183   57.5322 C.ar    1  ZINC000477669194   -0.0600
     16 C16       -11.4885   -1.8085   58.0188 C.ar    1  ZINC000477669194   -0.1400
     17 C17       -12.4549   -1.3818   58.9255 C.ar    1  ZINC000477669194    0.1700
     18 N18       -13.3931   -2.2838   59.4153 N.am    1  ZINC000477669194   -1.0600
     19 S19       -14.5255   -2.9350   58.3974 S.o2    1  ZINC000477669194    2.6100
     20 C20       -15.4411   -1.5031   57.7636 C.3     1  ZINC000477669194   -0.6700
     21 O21       -13.7610   -3.5365   57.3616 O.2     1  ZINC000477669194   -0.9400
     22 O22       -15.3516   -3.7185   59.2478 O.2     1  ZINC000477669194   -0.9500
     23 C23       -12.4839   -0.0540   59.3432 C.ar    1  ZINC000477669194   -0.1600
     24 C24       -11.5539    0.8399   58.8641 C.ar    1  ZINC000477669194   -0.0300
     25 C25        -7.3440    3.7865   59.7878 C.2     1  ZINC000477669194   -0.2600
     26 S26        -7.5883    3.2797   61.4574 S.3     1  ZINC000477669194    0.1500
     27 H27        -7.4270    0.8684   63.0043 H       1  ZINC000477669194    0.0800
     28 H28        -7.8596   -0.2467   61.6861 H       1  ZINC000477669194    0.0900
     29 H29        -6.1484    0.0934   62.0386 H       1  ZINC000477669194    0.0900
     30 H30        -5.2423    4.3125   57.7898 H       1  ZINC000477669194    0.1300
     31 H31        -4.7768    4.3870   55.3763 H       1  ZINC000477669194    0.1300
     32 H32        -5.9621    2.8775   53.8396 H       1  ZINC000477669194    0.1300
     33 H33        -7.6230    1.2828   54.7030 H       1  ZINC000477669194    0.1500
     34 H34        -8.0533    0.0674   57.4352 H       1  ZINC000477669194    0.4200
     35 H35        -9.8095   -1.2499   56.8286 H       1  ZINC000477669194    0.1300
     36 H36       -11.4688   -2.8391   57.6967 H       1  ZINC000477669194    0.1400
     37 H37       -13.3842   -2.5315   60.3530 H       1  ZINC000477669194    0.4300
     38 H38       -14.7756   -0.8832   57.1627 H       1  ZINC000477669194    0.1300
     39 H39       -16.2722   -1.8468   57.1477 H       1  ZINC000477669194    0.1400
     40 H40       -15.8258   -0.9187   58.5995 H       1  ZINC000477669194    0.1300
     41 H41       -13.2346    0.2738   60.0470 H       1  ZINC000477669194    0.1700
     42 H42       -11.5767    1.8697   59.1888 H       1  ZINC000477669194    0.1500
     43 H43        -7.4630    4.7888   59.4038 H       1  ZINC000477669194    0.1800
@<TRIPOS>BOND
     1     1     2    1
     2     1    27    1
     3     1    28    1
     4     1    29    1
     5     2    26    1
     6     2     3    2
     7     3     4    1
     8     4     5    1
     9     4    25    2
    10     5    10   ar
    11     5     6   ar
    12     6     7   ar
    13     6    30    1
    14     7     8   ar
    15     7    31    1
    16     8     9   ar
    17     8    32    1
    18     9    10   ar
    19     9    33    1
    20    10    11    1
    21    11    12   am
    22    11    34    1
    23    12    13    2
    24    12    14    1
    25    14    24   ar
    26    14    15   ar
    27    15    16   ar
    28    15    35    1
    29    16    17   ar
    30    16    36    1
    31    17    18    1
    32    17    23   ar
    33    18    19   am
    34    18    37    1
    35    19    20    1
    36    19    21    2
    37    19    22    2
    38    20    38    1
    39    20    39    1
    40    20    40    1
    41    23    24   ar
    42    23    41    1
    43    24    42    1
    44    25    26    1
    45    25    43    1
@<TRIPOS>SUBSTRUCTURE
     1 ZINC000477669194        1 TEMP              0 ****  ****    0 ROOT


##########                                Name:    ZINC000463474628
##########                DOCK_Rotatable_Bonds:                   5
##########                         Heavy_Atoms:                  25
##########                    Molecular_Weight:              407.35
##########                DOCK_Rotatable_Bonds:                   5
##########                       Formal_Charge:           0.0200004
##########                     HBond_Acceptors:                   4
##########                        HBond_Donors:                   0
##########                         Heavy_Atoms:                  25
##########                          Grid_Score:          -23.958731
##########                     Grid_vdw_energy:          -23.988039
##########                      Grid_es_energy:            0.029309
##########           Internal_energy_repulsive:           20.106215

@<TRIPOS>MOLECULE
ZINC000463474628
 52 54 1 0 0
SMALL
USER_CHARGES


@<TRIPOS>ATOM
      1 C1         -7.3717    0.6609   62.3016 C.3     1  ZINC000463474628   -0.1400
      2 C2         -8.5653    0.5652   61.3491 C.3     1  ZINC000463474628   -0.1300
      3 C3         -8.0615    0.4807   59.9069 C.3     1  ZINC000463474628    0.1400
      4 H4         -7.4589   -0.4182   59.7770 H       1  ZINC000463474628    0.0800
      5 C5         -7.2199    1.7299   59.5711 C.3     1  ZINC000463474628   -0.1300
      6 C6         -7.6230    2.0364   58.1045 C.3     1  ZINC000463474628   -0.1300
      7 C7         -9.1218    1.6452   58.1056 C.3     1  ZINC000463474628    0.0900
      8 N8         -9.2020    0.4566   58.9794 N.am    1  ZINC000463474628   -0.6100
      9 C9        -10.1615   -0.4888   58.9336 C.2     1  ZINC000463474628    0.5300
     10 O10       -10.1270   -1.4256   59.7030 O.2     1  ZINC000463474628   -0.5100
     11 C11       -11.2772   -0.3817   57.9261 C.3     1  ZINC000463474628   -0.1200
     12 H12       -11.4256    0.6641   57.6573 H       1  ZINC000463474628    0.1000
     13 C13       -12.5667   -0.9416   58.5307 C.3     1  ZINC000463474628   -0.1000
     14 C14       -13.7079   -0.8034   57.5204 C.3     1  ZINC000463474628   -0.1300
     15 C15       -13.3723   -1.6122   56.2633 C.3     1  ZINC000463474628    0.0900
     16 N16       -12.0627   -1.1786   55.7577 N.am    1  ZINC000463474628   -0.6000
     17 C17       -11.9179   -0.7819   54.4777 C.2     1  ZINC000463474628    0.5700
     18 O18       -12.8761   -0.7806   53.7297 O.2     1  ZINC000463474628   -0.5200
     19 C19       -10.5941   -0.3485   53.9838 C.ar    1  ZINC000463474628   -0.1200
     20 C20        -9.6241   -1.2967   53.6546 C.ar    1  ZINC000463474628   -0.0800
     21 C21        -8.3905   -0.8861   53.1942 C.ar    1  ZINC000463474628   -0.1000
     22 C22        -8.1133    0.4637   53.0583 C.ar    1  ZINC000463474628   -0.0700
     23 Br23       -6.4198    1.0181   52.4258 Br      1  ZINC000463474628   -0.0400
     24 C24        -9.0717    1.4093   53.3833 C.ar    1  ZINC000463474628   -0.0900
     25 C25       -10.3105    1.0110   53.8391 C.ar    1  ZINC000463474628   -0.0300
     26 C26       -11.3521    2.0413   54.1924 C.3     1  ZINC000463474628   -0.1300
     27 C27       -10.9137   -1.1850   56.6734 C.3     1  ZINC000463474628    0.1200
     28 H28        -6.9853   -0.3385   62.5014 H       1  ZINC000463474628    0.0700
     29 H29        -6.5902    1.2679   61.8447 H       1  ZINC000463474628    0.0600
     30 H30        -7.6894    1.1214   63.2370 H       1  ZINC000463474628    0.0300
     31 H31        -9.1467   -0.3265   61.5838 H       1  ZINC000463474628    0.0600
     32 H32        -9.1931    1.4488   61.4635 H       1  ZINC000463474628    0.0700
     33 H33        -7.4844    2.5605   60.2254 H       1  ZINC000463474628    0.0800
     34 H34        -6.1550    1.5074   59.6399 H       1  ZINC000463474628    0.0800
     35 H35        -7.4956    3.0949   57.8773 H       1  ZINC000463474628    0.0900
     36 H36        -7.0583    1.4181   57.4067 H       1  ZINC000463474628    0.0800
     37 H37        -9.7254    2.4571   58.5112 H       1  ZINC000463474628    0.0700
     38 H38        -9.4494    1.3953   57.0965 H       1  ZINC000463474628    0.0800
     39 H39       -12.4253   -1.9939   58.7771 H       1  ZINC000463474628    0.0800
     40 H40       -12.8141   -0.3871   59.4359 H       1  ZINC000463474628    0.0700
     41 H41       -14.6310   -1.1809   57.9602 H       1  ZINC000463474628    0.0800
     42 H42       -13.8335    0.2463   57.2548 H       1  ZINC000463474628    0.0700
     43 H43       -13.3356   -2.6732   56.5104 H       1  ZINC000463474628    0.0800
     44 H44       -14.1335   -1.4382   55.5028 H       1  ZINC000463474628    0.1000
     45 H45        -9.8390   -2.3499   53.7606 H       1  ZINC000463474628    0.1400
     46 H46        -7.6391   -1.6188   52.9395 H       1  ZINC000463474628    0.1400
     47 H47        -8.8495    2.4607   53.2756 H       1  ZINC000463474628    0.1400
     48 H48       -12.0111    2.1993   53.3387 H       1  ZINC000463474628    0.0700
     49 H49       -11.9368    1.6901   55.0426 H       1  ZINC000463474628    0.0900
     50 H50       -10.8617    2.9797   54.4513 H       1  ZINC000463474628    0.0700
     51 H51       -10.0532   -0.7296   56.1832 H       1  ZINC000463474628    0.1000
     52 H52       -10.6761   -2.2111   56.9544 H       1  ZINC000463474628    0.0800
@<TRIPOS>BOND
     1     1     2    1
     2     1    28    1
     3     1    29    1
     4     1    30    1
     5     2     3    1
     6     2    31    1
     7     2    32    1
     8     3     4    1
     9     3     8    1
    10     3     5    1
    11     5     6    1
    12     5    33    1
    13     5    34    1
    14     6     7    1
    15     6    35    1
    16     6    36    1
    17     7     8    1
    18     7    37    1
    19     7    38    1
    20     8     9   am
    21     9    10    2
    22     9    11    1
    23    11    12    1
    24    11    27    1
    25    11    13    1
    26    13    14    1
    27    13    39    1
    28    13    40    1
    29    14    15    1
    30    14    41    1
    31    14    42    1
    32    15    16    1
    33    15    43    1
    34    15    44    1
    35    16    17   am
    36    16    27    1
    37    17    18    2
    38    17    19    1
    39    19    25   ar
    40    19    20   ar
    41    20    21   ar
    42    20    45    1
    43    21    22   ar
    44    21    46    1
    45    22    23    1
    46    22    24   ar
    47    24    25   ar
    48    24    47    1
    49    25    26    1
    50    26    48    1
    51    26    49    1
    52    26    50    1
    53    27    51    1
    54    27    52    1
@<TRIPOS>SUBSTRUCTURE
     1 ZINC000463474628        1 TEMP              0 ****  ****    0 ROOT


##########                                Name:    ZINC000012979878
##########                DOCK_Rotatable_Bonds:                   7
##########                         Heavy_Atoms:                  26
##########                    Molecular_Weight:             388.874
##########                DOCK_Rotatable_Bonds:                   7
##########                       Formal_Charge:          -0.0100003
##########                     HBond_Acceptors:                   7
##########                        HBond_Donors:                   1
##########                         Heavy_Atoms:                  26
##########                          Grid_Score:          -23.948029
##########                     Grid_vdw_energy:          -23.407730
##########                      Grid_es_energy:           -0.540298
##########           Internal_energy_repulsive:           11.284362

@<TRIPOS>MOLECULE
ZINC000012979878
 43 45 1 0 0
SMALL
USER_CHARGES


@<TRIPOS>ATOM
      1 C1         -8.1036   -0.0240   66.8657 C.3     1  <0>         0.0300
      2 O2         -7.9362   -0.1736   65.4544 O.3     1  <0>        -0.3100
      3 C3         -8.8564    0.4294   64.6566 C.ar    1  <0>         0.1500
      4 C4         -9.8996    1.1494   65.2215 C.ar    1  <0>        -0.2200
      5 C5        -10.8365    1.7629   64.4115 C.ar    1  <0>        -0.0600
      6 C6        -10.7376    1.6618   63.0377 C.ar    1  <0>        -0.1800
      7 C7         -9.6951    0.9422   62.4664 C.ar    1  <0>         0.1800
      8 N8         -9.5948    0.8398   61.0755 N.am    1  <0>        -0.6700
      9 C9        -10.5871    0.2629   60.3689 C.2     1  <0>         0.6000
     10 O10       -11.5702   -0.1689   60.9415 O.2     1  <0>        -0.4900
     11 C11       -10.4819    0.1555   58.9101 C.2     1  <0>        -0.3000
     12 C12       -10.7890   -0.9353   58.1641 C.2     1  <0>         0.1600
     13 C13       -11.2959   -2.2214   58.7642 C.3     1  <0>        -0.0900
     14 N14       -10.6075   -0.7737   56.8774 N.2     1  <0>        -0.4500
     15 C15       -10.1682    0.3765   56.4784 C.2     1  <0>         0.0600
     16 C16        -9.9005    0.7437   55.0415 C.3     1  <0>         0.1300
     17 O17        -8.9510    1.8104   54.9914 O.3     1  <0>        -0.3000
     18 C18        -8.7907    2.4382   53.7966 C.ar    1  <0>         0.1300
     19 C19        -9.8496    3.1315   53.2287 C.ar    1  <0>        -0.2000
     20 C20        -9.6848    3.7689   52.0142 C.ar    1  <0>        -0.0700
     21 C21        -8.4645    3.7157   51.3640 C.ar    1  <0>        -0.0700
     22 Cl22       -8.2600    4.5170   49.8377 Cl      1  <0>        -0.0700
     23 C23        -7.4071    3.0251   51.9291 C.ar    1  <0>        -0.0700
     24 C24        -7.5663    2.3913   53.1462 C.ar    1  <0>        -0.1300
     25 S25        -9.9414    1.4226   57.8113 S.3     1  <0>         0.2000
     26 C26        -8.7503    0.3303   63.2781 C.ar    1  <0>        -0.1500
     27 H27        -8.0681    1.0340   67.1256 H       1  <0>         0.0600
     28 H28        -9.0663   -0.4393   67.1635 H       1  <0>         0.0600
     29 H29        -7.3038   -0.5526   67.3845 H       1  <0>         0.1000
     30 H30        -9.9796    1.2301   66.2956 H       1  <0>         0.1300
     31 H31       -11.6478    2.3219   64.8538 H       1  <0>         0.1300
     32 H32       -11.4710    2.1421   62.4069 H       1  <0>         0.1300
     33 H33        -8.8112    1.1839   60.6190 H       1  <0>         0.4100
     34 H34       -12.3845   -2.1947   58.8142 H       1  <0>         0.0900
     35 H35       -10.9813   -3.0607   58.1439 H       1  <0>         0.0800
     36 H36       -10.8889   -2.3390   59.7684 H       1  <0>         0.1000
     37 H37        -9.5020   -0.1225   54.5134 H       1  <0>         0.0900
     38 H38       -10.8297    1.0618   54.5686 H       1  <0>         0.1000
     39 H39       -10.8025    3.1725   53.7355 H       1  <0>         0.1400
     40 H40       -10.5089    4.3087   51.5719 H       1  <0>         0.1400
     41 H41        -6.4553    2.9851   51.4202 H       1  <0>         0.1400
     42 H42        -6.7407    1.8523   53.5868 H       1  <0>         0.1400
     43 H43        -7.9389   -0.2292   62.8368 H       1  <0>         0.1400
@<TRIPOS>BOND
     1     1     2    1
     2     1    27    1
     3     1    28    1
     4     1    29    1
     5     2     3    1
     6     3    26   ar
     7     3     4   ar
     8     4     5   ar
     9     4    30    1
    10     5     6   ar
    11     5    31    1
    12     6     7   ar
    13     6    32    1
    14     7     8    1
    15     7    26   ar
    16     8     9   am
    17     8    33    1
    18     9    10    2
    19     9    11    1
    20    11    25    1
    21    11    12    2
    22    12    13    1
    23    12    14    1
    24    13    34    1
    25    13    35    1
    26    13    36    1
    27    14    15    2
    28    15    16    1
    29    15    25    1
    30    16    17    1
    31    16    37    1
    32    16    38    1
    33    17    18    1
    34    18    24   ar
    35    18    19   ar
    36    19    20   ar
    37    19    39    1
    38    20    21   ar
    39    20    40    1
    40    21    22    1
    41    21    23   ar
    42    23    24   ar
    43    23    41    1
    44    24    42    1
    45    26    43    1
@<TRIPOS>SUBSTRUCTURE
     1 <0>         1 TEMP              0 ****  ****    0 ROOT


##########                                Name:    ZINC000330515179
##########                DOCK_Rotatable_Bonds:                   4
##########                         Heavy_Atoms:                  21
##########                    Molecular_Weight:             378.287
##########                DOCK_Rotatable_Bonds:                   4
##########                       Formal_Charge:           0.0200002
##########                     HBond_Acceptors:                   6
##########                        HBond_Donors:                   0
##########                         Heavy_Atoms:                  21
##########                          Grid_Score:          -23.935175
##########                     Grid_vdw_energy:          -23.891033
##########                      Grid_es_energy:           -0.044142
##########           Internal_energy_repulsive:            5.109569

@<TRIPOS>MOLECULE
ZINC000330515179
 41 42 1 0 0
SMALL
USER_CHARGES


@<TRIPOS>ATOM
      1 C1         -8.4606    0.1022   66.6566 C.3     1  ZINC000330515179    0.0300
      2 O2         -8.8938    0.0703   65.2951 O.3     1  ZINC000330515179   -0.3800
      3 C3         -7.9405    0.5960   64.3694 C.3     1  ZINC000330515179    0.0700
      4 C4         -8.5742    0.6840   62.9796 C.3     1  ZINC000330515179    0.0800
      5 H5         -9.1244   -0.2337   62.7716 H       1  ZINC000330515179    0.0800
      6 C6         -7.4757    0.8722   61.9270 C.3     1  ZINC000330515179    0.0900
      7 N7         -8.1169    1.1408   60.6300 N.am    1  ZINC000330515179   -1.0000
      8 S8         -7.6957    0.2837   59.2771 S.o2    1  ZINC000330515179    2.6900
      9 O9         -6.5905   -0.5299   59.6456 O.2     1  ZINC000330515179   -0.9400
     10 O10        -8.9031   -0.2412   58.7425 O.2     1  ZINC000330515179   -0.9500
     11 C11        -7.0895    1.4406   58.0945 C.ar    1  ZINC000330515179   -0.6700
     12 C12        -5.9920    2.2254   58.3953 C.ar    1  ZINC000330515179   -0.0100
     13 C13        -5.5158    3.1328   57.4678 C.ar    1  ZINC000330515179   -0.1100
     14 C14        -6.1377    3.2555   56.2383 C.ar    1  ZINC000330515179   -0.0400
     15 Br15       -5.4864    4.4963   54.9686 Br      1  ZINC000330515179   -0.0300
     16 C16        -7.2358    2.4700   55.9376 C.ar    1  ZINC000330515179   -0.1100
     17 C17        -7.7081    1.5591   56.8639 C.ar    1  ZINC000330515179   -0.0100
     18 C18        -9.1430    2.1939   60.5707 C.3     1  ZINC000330515179    0.1000
     19 C19       -10.1602    1.9413   61.6893 C.3     1  ZINC000330515179    0.1000
     20 C20       -11.1282    3.1230   61.7762 C.3     1  ZINC000330515179   -0.1400
     21 C21       -10.9424    0.6610   61.3894 C.3     1  ZINC000330515179   -0.1800
     22 O22        -9.4686    1.7983   62.9323 O.3     1  ZINC000330515179   -0.3500
     23 H23        -9.2396   -0.3137   67.2956 H       1  ZINC000330515179    0.0900
     24 H24        -7.5504   -0.4882   66.7621 H       1  ZINC000330515179    0.0400
     25 H25        -8.2614    1.1328   66.9504 H       1  ZINC000330515179    0.0400
     26 H26        -7.6315    1.5904   64.6914 H       1  ZINC000330515179    0.0600
     27 H27        -7.0710   -0.0601   64.3314 H       1  ZINC000330515179    0.0700
     28 H28        -6.8417    1.7142   62.2045 H       1  ZINC000330515179    0.0900
     29 H29        -6.8740   -0.0341   61.8583 H       1  ZINC000330515179    0.1000
     30 H30        -5.5068    2.1298   59.3555 H       1  ZINC000330515179    0.1500
     31 H31        -4.6586    3.7462   57.7030 H       1  ZINC000330515179    0.1500
     32 H32        -7.7217    2.5653   54.9779 H       1  ZINC000330515179    0.1500
     33 H33        -8.5655    0.9458   56.6293 H       1  ZINC000330515179    0.1500
     34 H34        -8.6769    3.1690   60.7116 H       1  ZINC000330515179    0.0900
     35 H35        -9.6454    2.1628   59.6038 H       1  ZINC000330515179    0.1000
     36 H36       -11.6525    3.2337   60.8271 H       1  ZINC000330515179    0.0800
     37 H37       -11.8512    2.9427   62.5718 H       1  ZINC000330515179    0.0700
     38 H38       -10.5705    4.0344   61.9917 H       1  ZINC000330515179    0.0700
     39 H39       -10.2524   -0.1807   61.3294 H       1  ZINC000330515179    0.0600
     40 H40       -11.6654    0.4821   62.1852 H       1  ZINC000330515179    0.0700
     41 H41       -11.4666    0.7695   60.4399 H       1  ZINC000330515179    0.0700
@<TRIPOS>BOND
     1     1     2    1
     2     1    23    1
     3     1    24    1
     4     1    25    1
     5     2     3    1
     6     3     4    1
     7     3    26    1
     8     3    27    1
     9     4     5    1
    10     4    22    1
    11     4     6    1
    12     6     7    1
    13     6    28    1
    14     6    29    1
    15     7     8   am
    16     7    18    1
    17     8     9    2
    18     8    10    2
    19     8    11    1
    20    11    17   ar
    21    11    12   ar
    22    12    13   ar
    23    12    30    1
    24    13    14   ar
    25    13    31    1
    26    14    15    1
    27    14    16   ar
    28    16    17   ar
    29    16    32    1
    30    17    33    1
    31    18    19    1
    32    18    34    1
    33    18    35    1
    34    19    20    1
    35    19    21    1
    36    19    22    1
    37    20    36    1
    38    20    37    1
    39    20    38    1
    40    21    39    1
    41    21    40    1
    42    21    41    1
@<TRIPOS>SUBSTRUCTURE
     1 ZINC000330515179        1 TEMP              0 ****  ****    0 ROOT


##########                                Name:      oleObject5.pdb
##########                DOCK_Rotatable_Bonds:                   5
##########                         Heavy_Atoms:                  24
##########                    Molecular_Weight:             323.438
##########                DOCK_Rotatable_Bonds:                   5
##########                       Formal_Charge:         0.000200074
##########                     HBond_Acceptors:                   4
##########                        HBond_Donors:                   2
##########                         Heavy_Atoms:                  24
##########                          Grid_Score:          -23.776314
##########                     Grid_vdw_energy:          -23.853228
##########                      Grid_es_energy:            0.076913
##########           Internal_energy_repulsive:           10.666884

@<TRIPOS>MOLECULE
oleObject5.pdb
 49 51 1 0 0
SMALL
NO_CHARGES


@<TRIPOS>ATOM
      1 C         -11.0860    2.8358   52.5431 C.3     1  UNL        -0.0394
      2 C         -10.9353    1.3813   52.9781 C.ar    1  UNL        -0.0456
      3 C         -11.9488    0.4749   52.6091 C.ar    1  UNL        -0.0590
      4 C         -11.8853   -0.8717   52.9937 C.ar    1  UNL        -0.0620
      5 C         -10.8052   -1.3261   53.7599 C.ar    1  UNL        -0.0619
      6 C          -9.7914   -0.4332   54.1356 C.ar    1  UNL        -0.0565
      7 C          -9.8342    0.9230   53.7479 C.ar    1  UNL        -0.0188
      8 C          -8.7068    1.8517   54.2188 C.3     1  UNL         0.0906
      9 N          -8.4067    1.5782   55.6354 N.am    1  UNL        -0.3025
     10 C          -8.1979    2.5775   56.5687 C.2     1  UNL         0.2156
     11 O          -8.4108    3.7513   56.3183 O.2     1  UNL        -0.2774
     12 C          -7.8997    2.0554   57.9871 C.3     1  UNL         0.0382
     13 C          -8.2835    3.0990   59.0702 C.3     1  UNL        -0.0292
     14 C          -7.2760    4.2682   59.1206 C.3     1  UNL        -0.0041
     15 N          -5.9087    3.7691   59.3469 N.4     1  UNL        -0.3167
     16 C          -5.4536    2.8213   58.3142 C.3     1  UNL        -0.0041
     17 C          -6.4207    1.6187   58.1740 C.3     1  UNL        -0.0292
     18 C          -7.4667    1.7504   53.3141 C.ar    1  UNL         0.0681
     19 N          -7.0273    0.5011   53.0258 N.ar    1  UNL        -0.2587
     20 C          -5.9516    0.3455   52.2315 C.ar    1  UNL         0.0272
     21 C          -5.2571    1.4306   51.6775 C.ar    1  UNL        -0.0435
     22 C          -5.7031    2.7290   51.9624 C.ar    1  UNL        -0.0559
     23 C          -6.8266    2.9028   52.7928 C.ar    1  UNL        -0.0272
     24 C          -7.3168    4.3133   53.0952 C.3     1  UNL        -0.0379
     25 H         -11.9205    2.9628   51.8424 H       1  UNL         0.0280
     26 H         -10.1881    3.2059   52.0360 H       1  UNL         0.0280
     27 H         -11.2877    3.4851   53.4020 H       1  UNL         0.0280
     28 H         -12.7976    0.8165   52.0231 H       1  UNL         0.0626
     29 H         -12.6748   -1.5590   52.7032 H       1  UNL         0.0623
     30 H         -10.7546   -2.3669   54.0664 H       1  UNL         0.0623
     31 H          -8.9685   -0.8017   54.7407 H       1  UNL         0.0627
     32 H          -9.0431    2.8914   54.1654 H       1  UNL         0.0624
     33 H          -8.7384    0.6904   55.9892 H       1  UNL         0.1504
     34 H          -8.5317    1.1691   58.1284 H       1  UNL         0.0402
     35 H          -8.3014    2.6064   60.0509 H       1  UNL         0.0288
     36 H          -9.2956    3.4866   58.8996 H       1  UNL         0.0288
     37 H          -7.5571    4.9574   59.9270 H       1  UNL         0.0428
     38 H          -7.3165    4.8252   58.1753 H       1  UNL         0.0428
     39 H          -5.8735    3.3088   60.2557 H       1  UNL         0.1222
     40 H          -4.4514    2.4532   58.5674 H       1  UNL         0.0428
     41 H          -5.3764    3.3437   57.3525 H       1  UNL         0.0428
     42 H          -6.3466    1.0066   59.0821 H       1  UNL         0.0288
     43 H          -6.1051    0.9790   57.3397 H       1  UNL         0.0288
     44 H          -5.6385   -0.6789   52.0339 H       1  UNL         0.0840
     45 H          -4.3931    1.2679   51.0400 H       1  UNL         0.0639
     46 H          -5.1838    3.5859   51.5426 H       1  UNL         0.0627
     47 H          -6.6952    5.0714   52.6027 H       1  UNL         0.0280
     48 H          -7.2887    4.5195   54.1721 H       1  UNL         0.0280
     49 H          -8.3452    4.4574   52.7427 H       1  UNL         0.0280
@<TRIPOS>BOND
     1     1     2    1
     2     1    25    1
     3     1    26    1
     4     1    27    1
     5     2     3   ar
     6     2     7   ar
     7     3     4   ar
     8     3    28    1
     9     4     5   ar
    10     4    29    1
    11     5     6   ar
    12     5    30    1
    13     6     7   ar
    14     6    31    1
    15     7     8    1
    16     8     9    1
    17     8    18    1
    18     8    32    1
    19     9    10   am
    20     9    33    1
    21    10    11    2
    22    10    12    1
    23    12    13    1
    24    12    17    1
    25    12    34    1
    26    13    14    1
    27    13    35    1
    28    13    36    1
    29    14    15    1
    30    14    37    1
    31    14    38    1
    32    15    16    1
    33    15    39    1
    34    16    17    1
    35    16    40    1
    36    16    41    1
    37    17    42    1
    38    17    43    1
    39    18    19   ar
    40    18    23   ar
    41    19    20   ar
    42    20    21   ar
    43    20    44    1
    44    21    22   ar
    45    21    45    1
    46    22    23   ar
    47    22    46    1
    48    23    24    1
    49    24    47    1
    50    24    48    1
    51    24    49    1
@<TRIPOS>SUBSTRUCTURE
     1 UNL         1 TEMP              0 ****  ****    0 ROOT


##########                                Name:    ZINC000422507946
##########                DOCK_Rotatable_Bonds:                   7
##########                         Heavy_Atoms:                  25
##########                    Molecular_Weight:             364.484
##########                DOCK_Rotatable_Bonds:                   7
##########                       Formal_Charge:          0.00999952
##########                     HBond_Acceptors:                   6
##########                        HBond_Donors:                   1
##########                         Heavy_Atoms:                  25
##########                          Grid_Score:          -23.589611
##########                     Grid_vdw_energy:          -22.994009
##########                      Grid_es_energy:           -0.595603
##########           Internal_energy_repulsive:           44.075092

@<TRIPOS>MOLECULE
ZINC000422507946
 50 52 1 0 0
SMALL
USER_CHARGES


@<TRIPOS>ATOM
      1 C1        -13.9925   -1.3764   56.6382 C.3     1  ZINC000422507946   -0.1400
      2 C2        -13.0289   -2.3516   57.3174 C.3     1  ZINC000422507946   -0.0400
      3 H3        -13.4127   -3.3698   57.2539 H       1  ZINC000422507946    0.1100
      4 C4        -12.8082   -1.9511   58.7908 C.3     1  ZINC000422507946   -0.1400
      5 C5        -11.3673   -2.3087   59.1946 C.3     1  ZINC000422507946    0.1400
      6 H6        -11.2641   -3.3898   59.2877 H       1  ZINC000422507946    0.1100
      7 N7        -11.0286   -1.6627   60.4651 N.am    1  ZINC000422507946   -0.6900
      8 C8        -11.0580   -0.3191   60.5668 C.2     1  ZINC000422507946    0.5100
      9 O9        -11.3665    0.3554   59.6065 O.2     1  ZINC000422507946   -0.5000
     10 C10       -10.7107    0.3399   61.8624 C.2     1  ZINC000422507946    0.5100
     11 O11       -11.5761    0.5530   62.6858 O.2     1  ZINC000422507946   -0.5200
     12 N12        -9.4362    0.6976   62.1161 N.am    1  ZINC000422507946   -0.5700
     13 C13        -8.3915    0.4403   61.1217 C.3     1  ZINC000422507946    0.1400
     14 C14        -8.6108    1.3255   59.9220 C.ar    1  ZINC000422507946   -0.0800
     15 C15        -9.2848    2.5241   60.0618 C.ar    1  ZINC000422507946   -0.1100
     16 C16        -9.4869    3.3374   58.9620 C.ar    1  ZINC000422507946   -0.0900
     17 C17        -9.0149    2.9526   57.7217 C.ar    1  ZINC000422507946   -0.1500
     18 C18        -8.3391    1.7522   57.5804 C.ar    1  ZINC000422507946    0.1000
     19 F19        -7.8773    1.3750   56.3682 F       1  ZINC000422507946   -0.1400
     20 C20        -8.1329    0.9413   58.6834 C.ar    1  ZINC000422507946   -0.1500
     21 C21        -9.0956    1.3438   63.3860 C.3     1  ZINC000422507946    0.1400
     22 C22        -8.4278    0.3264   64.3340 C.3     1  ZINC000422507946   -0.1200
     23 C23        -6.9097    0.5508   64.1237 C.3     1  ZINC000422507946   -0.1300
     24 C24        -6.8109    2.0879   63.9606 C.3     1  ZINC000422507946   -0.1200
     25 C25        -8.0675    2.4637   63.1485 C.3     1  ZINC000422507946   -0.1600
     26 C26       -10.4395   -1.7830   58.0679 C.3     1  ZINC000422507946   -0.0900
     27 S27       -11.3691   -2.2462   56.5518 S.3     1  ZINC000422507946   -0.2700
     28 H28       -14.1151   -1.6562   55.5919 H       1  ZINC000422507946    0.0700
     29 H29       -14.9596   -1.4125   57.1397 H       1  ZINC000422507946    0.0700
     30 H30       -13.5892   -0.3655   56.6991 H       1  ZINC000422507946    0.0700
     31 H31       -12.9647   -0.8785   58.9057 H       1  ZINC000422507946    0.0900
     32 H32       -13.5106   -2.4907   59.4259 H       1  ZINC000422507946    0.0900
     33 H33       -10.7831   -2.2020   61.2331 H       1  ZINC000422507946    0.4100
     34 H34        -7.4152    0.6537   61.5570 H       1  ZINC000422507946    0.1100
     35 H35        -8.4318   -0.6047   60.8145 H       1  ZINC000422507946    0.1000
     36 H36        -9.6544    2.8255   61.0309 H       1  ZINC000422507946    0.1400
     37 H37       -10.0139    4.2735   59.0725 H       1  ZINC000422507946    0.1300
     38 H38        -9.1734    3.5877   56.8627 H       1  ZINC000422507946    0.1400
     39 H39        -7.6056    0.0050   58.5744 H       1  ZINC000422507946    0.1400
     40 H40        -9.9935    1.7531   63.8489 H       1  ZINC000422507946    0.1100
     41 H41        -8.7039    0.5306   65.3685 H       1  ZINC000422507946    0.0800
     42 H42        -8.7048   -0.6911   64.0581 H       1  ZINC000422507946    0.0600
     43 H43        -6.3457    0.2178   64.9949 H       1  ZINC000422507946    0.0700
     44 H44        -6.5656    0.0437   63.2223 H       1  ZINC000422507946    0.0600
     45 H45        -6.8259    2.5767   64.9346 H       1  ZINC000422507946    0.0700
     46 H46        -5.9079    2.3560   63.4120 H       1  ZINC000422507946    0.0700
     47 H47        -7.8221    2.5266   62.0884 H       1  ZINC000422507946    0.0900
     48 H48        -8.4661    3.4165   63.4969 H       1  ZINC000422507946    0.0800
     49 H49       -10.3204   -0.7016   58.1361 H       1  ZINC000422507946    0.1000
     50 H50        -9.4716   -2.2837   58.0968 H       1  ZINC000422507946    0.1100
@<TRIPOS>BOND
     1     1     2    1
     2     1    28    1
     3     1    29    1
     4     1    30    1
     5     2     3    1
     6     2    27    1
     7     2     4    1
     8     4     5    1
     9     4    31    1
    10     4    32    1
    11     5     6    1
    12     5     7    1
    13     5    26    1
    14     7     8   am
    15     7    33    1
    16     8     9    2
    17     8    10    1
    18    10    11    2
    19    10    12   am
    20    12    13    1
    21    12    21    1
    22    13    14    1
    23    13    34    1
    24    13    35    1
    25    14    20   ar
    26    14    15   ar
    27    15    16   ar
    28    15    36    1
    29    16    17   ar
    30    16    37    1
    31    17    18   ar
    32    17    38    1
    33    18    19    1
    34    18    20   ar
    35    20    39    1
    36    21    25    1
    37    21    22    1
    38    21    40    1
    39    22    23    1
    40    22    41    1
    41    22    42    1
    42    23    24    1
    43    23    43    1
    44    23    44    1
    45    24    25    1
    46    24    45    1
    47    24    46    1
    48    25    47    1
    49    25    48    1
    50    26    27    1
    51    26    49    1
    52    26    50    1
@<TRIPOS>SUBSTRUCTURE
     1 ZINC000422507946        1 TEMP              0 ****  ****    0 ROOT


##########                                Name:    ZINC000828026236
##########                DOCK_Rotatable_Bonds:                   1
##########                         Heavy_Atoms:                  19
##########                    Molecular_Weight:             383.045
##########                DOCK_Rotatable_Bonds:                   1
##########                       Formal_Charge:                   0
##########                     HBond_Acceptors:                   5
##########                        HBond_Donors:                   0
##########                         Heavy_Atoms:                  19
##########                          Grid_Score:          -23.584650
##########                     Grid_vdw_energy:          -23.345612
##########                      Grid_es_energy:           -0.239039
##########           Internal_energy_repulsive:            2.627959

@<TRIPOS>MOLECULE
ZINC000828026236
 28 30 1 0 0
SMALL
USER_CHARGES


@<TRIPOS>ATOM
      1 N1         -9.3333   -2.5848   57.3183 N.1     1  ZINC000828026236   -0.3800
      2 C2        -10.2734   -2.2419   56.7806 C.1     1  ZINC000828026236    0.2600
      3 C3        -11.4584   -1.8096   56.1027 C.ar    1  ZINC000828026236   -0.0500
      4 C4        -12.7212   -2.2227   56.5417 C.ar    1  ZINC000828026236    0.0100
      5 C5        -13.8359   -1.7766   55.8516 C.ar    1  ZINC000828026236   -0.1600
      6 Br6       -15.5683   -2.3012   56.3989 Br      1  ZINC000828026236   -0.0100
      7 C7        -13.6723   -0.9437   54.7589 C.ar    1  ZINC000828026236    0.1800
      8 N8        -12.4725   -0.5657   54.3611 N.ar    1  ZINC000828026236   -0.5000
      9 C9        -11.3747   -0.9577   54.9876 C.ar    1  ZINC000828026236    0.3600
     10 N10       -10.1361   -0.5361   54.5350 N.3     1  ZINC000828026236   -0.4900
     11 C11       -10.2143    0.8195   53.9725 C.3     1  ZINC000828026236    0.0500
     12 C12        -8.8020    1.4000   53.8260 C.3     1  ZINC000828026236    0.1100
     13 N13        -7.9686    0.4103   53.1383 N.pl3   1  ZINC000828026236   -0.4400
     14 C14        -6.7644    0.5878   52.5306 C.2     1  ZINC000828026236   -0.0300
     15 Br15       -5.7930    2.2048   52.3986 Br      1  ZINC000828026236    0.0200
     16 C16        -6.3979   -0.6158   52.0402 C.2     1  ZINC000828026236    0.0300
     17 N17        -7.3611   -1.5018   52.3460 N.2     1  ZINC000828026236   -0.4700
     18 C18        -8.3040   -0.8979   53.0039 C.2     1  ZINC000828026236    0.2300
     19 C19        -9.5798   -1.4870   53.5569 C.3     1  ZINC000828026236    0.1500
     20 H20       -12.8239   -2.8738   57.3974 H       1  ZINC000828026236    0.1600
     21 H21       -14.5426   -0.5969   54.2217 H       1  ZINC000828026236    0.1800
     22 H22       -10.6933    0.7793   52.9942 H       1  ZINC000828026236    0.0700
     23 H23       -10.8004    1.4546   54.6368 H       1  ZINC000828026236    0.1100
     24 H24        -8.8408    2.3185   53.2404 H       1  ZINC000828026236    0.1100
     25 H25        -8.3863    1.6092   54.8117 H       1  ZINC000828026236    0.1000
     26 H26        -5.4894   -0.8292   51.4966 H       1  ZINC000828026236    0.1800
     27 H27        -9.3644   -2.4361   54.0478 H       1  ZINC000828026236    0.1200
     28 H28       -10.2938   -1.6437   52.7485 H       1  ZINC000828026236    0.1000
@<TRIPOS>BOND
     1     1     2    3
     2     2     3    1
     3     3     9   ar
     4     3     4   ar
     5     4     5   ar
     6     4    20    1
     7     5     6    1
     8     5     7   ar
     9     7     8   ar
    10     7    21    1
    11     8     9   ar
    12     9    10    1
    13    10    19    1
    14    10    11    1
    15    11    12    1
    16    11    22    1
    17    11    23    1
    18    12    13    1
    19    12    24    1
    20    12    25    1
    21    13    18    1
    22    13    14    1
    23    14    15    1
    24    14    16    2
    25    16    17    1
    26    16    26    1
    27    17    18    2
    28    18    19    1
    29    19    27    1
    30    19    28    1
@<TRIPOS>SUBSTRUCTURE
     1 ZINC000828026236        1 TEMP              0 ****  ****    0 ROOT


##########                                Name:    ZINC000252489163
##########                DOCK_Rotatable_Bonds:                   6
##########                         Heavy_Atoms:                  25
##########                    Molecular_Weight:             379.403
##########                DOCK_Rotatable_Bonds:                   6
##########                       Formal_Charge:          0.00999963
##########                     HBond_Acceptors:                  10
##########                        HBond_Donors:                   2
##########                         Heavy_Atoms:                  25
##########                          Grid_Score:          -23.536053
##########                     Grid_vdw_energy:          -21.433620
##########                      Grid_es_energy:           -2.102432
##########           Internal_energy_repulsive:           10.871428

@<TRIPOS>MOLECULE
ZINC000252489163
 45 46 1 0 0
SMALL
USER_CHARGES


@<TRIPOS>ATOM
      1 C1         -5.7351    0.3554   52.2173 C.3     1  ZINC000252489163   -0.1100
      2 C2         -6.7132    0.9056   53.2233 C.ar    1  ZINC000252489163   -0.0600
      3 C3         -7.9857    0.3762   53.3087 C.ar    1  ZINC000252489163   -0.1300
      4 C4         -8.8864    0.8834   54.2364 C.ar    1  ZINC000252489163    0.1700
      5 N5        -10.1766    0.3488   54.3259 N.am    1  ZINC000252489163   -0.6800
      6 C6        -10.5408   -0.3535   55.4171 C.2     1  ZINC000252489163    0.7100
      7 O7         -9.7485   -0.5225   56.3237 O.2     1  ZINC000252489163   -0.5500
      8 N8        -11.7834   -0.8683   55.5033 N.am    1  ZINC000252489163   -0.6200
      9 C9        -12.7520   -0.6724   54.4159 C.3     1  ZINC000252489163    0.1000
     10 C10       -14.0353   -0.0741   55.0007 C.3     1  ZINC000252489163   -0.1400
     11 C11       -14.5382   -0.9675   56.1369 C.3     1  ZINC000252489163   -0.1300
     12 C12       -13.4846   -1.0276   57.2453 C.3     1  ZINC000252489163    0.1400
     13 H13       -13.2829   -0.0206   57.6105 H       1  ZINC000252489163    0.0900
     14 N14       -13.9802   -1.8570   58.3467 N.am    1  ZINC000252489163   -1.1100
     15 S15       -14.7093   -1.1482   59.6537 S.o2    1  ZINC000252489163    2.6100
     16 C16       -13.4389   -0.0509   60.3410 C.3     1  ZINC000252489163   -0.6700
     17 O17       -15.7728   -0.3904   59.0935 O.2     1  ZINC000252489163   -0.9500
     18 O18       -14.9672   -2.2289   60.5398 O.2     1  ZINC000252489163   -0.9500
     19 C19       -12.1932   -1.6414   56.6835 C.3     1  ZINC000252489163    0.1100
     20 C20        -8.5038    1.9217   55.0751 C.ar    1  ZINC000252489163   -0.1000
     21 C21        -7.2294    2.4470   54.9846 C.ar    1  ZINC000252489163   -0.1600
     22 C22        -6.8133    3.5740   55.8945 C.3     1  ZINC000252489163    0.5100
     23 F23        -7.6145    3.5673   57.0413 F       1  ZINC000252489163   -0.1700
     24 F24        -5.4734    3.4072   56.2607 F       1  ZINC000252489163   -0.1800
     25 F25        -6.9658    4.7935   55.2261 F       1  ZINC000252489163   -0.1800
     26 C26        -6.3334    1.9363   54.0636 C.ar    1  ZINC000252489163   -0.0900
     27 H27        -5.1724   -0.4624   52.6674 H       1  ZINC000252489163    0.0800
     28 H28        -6.2778   -0.0128   51.3468 H       1  ZINC000252489163    0.0700
     29 H29        -5.0477    1.1437   51.9103 H       1  ZINC000252489163    0.0700
     30 H30        -8.2804   -0.4312   52.6548 H       1  ZINC000252489163    0.1300
     31 H31       -10.8088    0.4837   53.6027 H       1  ZINC000252489163    0.4100
     32 H32       -12.3358    0.0096   53.6744 H       1  ZINC000252489163    0.0800
     33 H33       -12.9757   -1.6314   53.9487 H       1  ZINC000252489163    0.0800
     34 H34       -13.8284    0.9238   55.3869 H       1  ZINC000252489163    0.0700
     35 H35       -14.7959   -0.0131   54.2222 H       1  ZINC000252489163    0.0900
     36 H36       -15.4648   -0.5573   56.5385 H       1  ZINC000252489163    0.0800
     37 H37       -14.7214   -1.9720   55.7553 H       1  ZINC000252489163    0.0800
     38 H38       -13.8812   -2.8212   58.3101 H       1  ZINC000252489163    0.4200
     39 H39       -13.1478    0.6832   59.5897 H       1  ZINC000252489163    0.1300
     40 H40       -13.8371    0.4629   61.2159 H       1  ZINC000252489163    0.1300
     41 H41       -12.5682   -0.6394   60.6303 H       1  ZINC000252489163    0.1300
     42 H42       -12.3738   -2.6790   56.4027 H       1  ZINC000252489163    0.0800
     43 H43       -11.4086   -1.5964   57.4387 H       1  ZINC000252489163    0.1100
     44 H44        -9.2020    2.3186   55.7971 H       1  ZINC000252489163    0.1800
     45 H45        -5.3375    2.3483   53.9951 H       1  ZINC000252489163    0.1300
@<TRIPOS>BOND
     1     1     2    1
     2     1    27    1
     3     1    28    1
     4     1    29    1
     5     2    26   ar
     6     2     3   ar
     7     3     4   ar
     8     3    30    1
     9     4     5    1
    10     4    20   ar
    11     5     6   am
    12     5    31    1
    13     6     7    2
    14     6     8   am
    15     8    19    1
    16     8     9    1
    17     9    10    1
    18     9    32    1
    19     9    33    1
    20    10    11    1
    21    10    34    1
    22    10    35    1
    23    11    12    1
    24    11    36    1
    25    11    37    1
    26    12    13    1
    27    12    14    1
    28    12    19    1
    29    14    15   am
    30    14    38    1
    31    15    16    1
    32    15    17    2
    33    15    18    2
    34    16    39    1
    35    16    40    1
    36    16    41    1
    37    19    42    1
    38    19    43    1
    39    20    21   ar
    40    20    44    1
    41    21    22    1
    42    21    26   ar
    43    22    23    1
    44    22    24    1
    45    22    25    1
    46    26    45    1
@<TRIPOS>SUBSTRUCTURE
     1 ZINC000252489163        1 TEMP              0 ****  ****    0 ROOT


##########                                Name:    ZINC000080099940
##########                DOCK_Rotatable_Bonds:                   4
##########                         Heavy_Atoms:                  26
##########                    Molecular_Weight:             343.388
##########                DOCK_Rotatable_Bonds:                   4
##########                       Formal_Charge:        -3.42727e-07
##########                     HBond_Acceptors:                   6
##########                        HBond_Donors:                   1
##########                         Heavy_Atoms:                  26
##########                          Grid_Score:          -23.525204
##########                     Grid_vdw_energy:          -21.960072
##########                      Grid_es_energy:           -1.565132
##########           Internal_energy_repulsive:            2.936952

@<TRIPOS>MOLECULE
ZINC000080099940
 43 46 1 0 0
SMALL
USER_CHARGES


@<TRIPOS>ATOM
      1 C1         -8.5306    0.5670   64.4189 C.3     1  ZINC000080099940   -0.1100
      2 C2         -8.4851    0.4104   62.9207 C.2     1  ZINC000080099940   -0.0700
      3 C3         -9.6342    0.4522   62.1943 C.2     1  ZINC000080099940   -0.0900
      4 C4         -9.5721    0.3037   60.7935 C.2     1  ZINC000080099940    0.2300
      5 N5        -10.5101    0.3027   59.8580 N.2     1  ZINC000080099940   -0.4800
      6 C6         -9.9345    0.1227   58.6585 C.2     1  ZINC000080099940    0.1000
      7 C7        -10.6418    0.0617   57.3556 C.ar    1  ZINC000080099940   -0.0200
      8 C8        -10.1012   -0.6731   56.3018 C.ar    1  ZINC000080099940   -0.0800
      9 C9        -10.7602   -0.7288   55.0920 C.ar    1  ZINC000080099940   -0.1200
     10 C10       -11.9627   -0.0524   54.9228 C.ar    1  ZINC000080099940    0.1500
     11 N11       -12.6288   -0.1097   53.6955 N.am    1  ZINC000080099940   -0.6500
     12 C12       -12.2984    0.7467   52.7088 C.2     1  ZINC000080099940    0.5700
     13 O13       -11.4215    1.5688   52.8861 O.2     1  ZINC000080099940   -0.5000
     14 C14       -13.0057    0.6858   51.4056 C.ar    1  ZINC000080099940    0.1300
     15 C15       -12.6788    1.5724   50.3790 C.ar    1  ZINC000080099940   -0.1700
     16 C16       -13.3701    1.4728   49.1797 C.ar    1  ZINC000080099940    0.1600
     17 N17       -14.3070    0.5493   49.0513 N.ar    1  ZINC000080099940   -0.5000
     18 C18       -14.5912   -0.2736   50.0424 C.ar    1  ZINC000080099940    0.3200
     19 C19       -15.6678   -1.3099   49.8469 C.3     1  ZINC000080099940   -0.0900
     20 N20       -13.9588   -0.2194   51.1946 N.ar    1  ZINC000080099940   -0.5000
     21 C21       -12.5037    0.6807   55.9725 C.ar    1  ZINC000080099940   -0.1400
     22 C22       -11.8506    0.7347   57.1855 C.ar    1  ZINC000080099940   -0.0700
     23 C23        -8.5897    0.0064   58.8427 C.2     1  ZINC000080099940   -0.0900
     24 N24        -8.3569    0.1197   60.1850 N.pl3   1  ZINC000080099940   -0.3600
     25 C25        -7.2114    0.0798   60.9268 C.2     1  ZINC000080099940    0.0600
     26 C26        -7.2552    0.2262   62.2676 C.2     1  ZINC000080099940   -0.1400
     27 H27        -7.5189    0.5110   64.8209 H       1  ZINC000080099940    0.0700
     28 H28        -8.9684    1.5331   64.6701 H       1  ZINC000080099940    0.0800
     29 H29        -9.1372   -0.2298   64.8493 H       1  ZINC000080099940    0.0800
     30 H30       -10.5850    0.5974   62.6856 H       1  ZINC000080099940    0.1500
     31 H31        -9.1666   -1.1983   56.4326 H       1  ZINC000080099940    0.1300
     32 H32       -10.3418   -1.2981   54.2753 H       1  ZINC000080099940    0.1400
     33 H33       -13.3288   -0.7661   53.5539 H       1  ZINC000080099940    0.4200
     34 H34       -11.9082    2.3169   50.5143 H       1  ZINC000080099940    0.1600
     35 H35       -13.1456    2.1416   48.3619 H       1  ZINC000080099940    0.1800
     36 H36       -15.2252   -2.2234   49.4501 H       1  ZINC000080099940    0.0900
     37 H37       -16.1449   -1.5230   50.8035 H       1  ZINC000080099940    0.0900
     38 H38       -16.4123   -0.9325   49.1457 H       1  ZINC000080099940    0.0900
     39 H39       -13.4381    1.2055   55.8388 H       1  ZINC000080099940    0.1300
     40 H40       -12.2716    1.3041   58.0010 H       1  ZINC000080099940    0.1400
     41 H41        -7.8474   -0.1469   58.0733 H       1  ZINC000080099940    0.1900
     42 H42        -6.2609   -0.0657   60.4353 H       1  ZINC000080099940    0.1700
     43 H43        -6.3412    0.1930   62.8421 H       1  ZINC000080099940    0.1500
@<TRIPOS>BOND
     1     1     2    1
     2     1    27    1
     3     1    28    1
     4     1    29    1
     5     2    26    1
     6     2     3    2
     7     3     4    1
     8     3    30    1
     9     4    24    1
    10     4     5    2
    11     5     6    1
    12     6     7    1
    13     6    23    2
    14     7    22   ar
    15     7     8   ar
    16     8     9   ar
    17     8    31    1
    18     9    10   ar
    19     9    32    1
    20    10    11    1
    21    10    21   ar
    22    11    12   am
    23    11    33    1
    24    12    13    2
    25    12    14    1
    26    14    20   ar
    27    14    15   ar
    28    15    16   ar
    29    15    34    1
    30    16    17   ar
    31    16    35    1
    32    17    18   ar
    33    18    19    1
    34    18    20   ar
    35    19    36    1
    36    19    37    1
    37    19    38    1
    38    21    22   ar
    39    21    39    1
    40    22    40    1
    41    23    24    1
    42    23    41    1
    43    24    25    1
    44    25    26    2
    45    25    42    1
    46    26    43    1
@<TRIPOS>SUBSTRUCTURE
     1 ZINC000080099940        1 TEMP              0 ****  ****    0 ROOT


##########                                Name:    ZINC000154446008
##########                DOCK_Rotatable_Bonds:                   5
##########                         Heavy_Atoms:                  24
##########                    Molecular_Weight:              349.41
##########                DOCK_Rotatable_Bonds:                   5
##########                       Formal_Charge:          -0.0199999
##########                     HBond_Acceptors:                   8
##########                        HBond_Donors:                   0
##########                         Heavy_Atoms:                  24
##########                          Grid_Score:          -23.463621
##########                     Grid_vdw_energy:          -22.823830
##########                      Grid_es_energy:           -0.639791
##########           Internal_energy_repulsive:           13.129254

@<TRIPOS>MOLECULE
ZINC000154446008
 43 45 1 0 0
SMALL
USER_CHARGES


@<TRIPOS>ATOM
      1 O1         -6.4929    5.3732   57.2397 O.2     1  ZINC000154446008   -0.5000
      2 C2         -6.9080    4.2905   56.8699 C.2     1  ZINC000154446008    0.5900
      3 C3         -6.8081    3.9107   55.4577 C.2     1  ZINC000154446008   -0.2300
      4 C4         -7.7761    4.1074   54.5135 C.2     1  ZINC000154446008   -0.0600
      5 C5         -7.4184    3.6549   53.2657 C.2     1  ZINC000154446008   -0.0500
      6 C6         -6.2003    3.1064   53.1884 C.2     1  ZINC000154446008   -0.2100
      7 N7         -5.6062    2.5534   51.9504 N.pl3   1  ZINC000154446008    0.0500
      8 O8         -4.4770    2.0972   51.9679 O.2     1  ZINC000154446008   -0.1300
      9 O9         -6.2466    2.5548   50.9143 O.2     1  ZINC000154446008   -0.1500
     10 S10        -5.4204    3.1358   54.7057 S.3     1  ZINC000154446008    0.3500
     11 N11        -7.4545    3.4386   57.7600 N.am    1  ZINC000154446008   -0.6100
     12 C12        -7.9488    2.1231   57.3299 C.3     1  ZINC000154446008    0.0800
     13 C13        -7.2627    1.0419   58.1738 C.3     1  ZINC000154446008    0.0900
     14 N14        -7.3744    1.4116   59.5918 N.am    1  ZINC000154446008   -0.6100
     15 C15        -7.9201    0.5593   60.4819 C.2     1  ZINC000154446008    0.5500
     16 O16        -8.3253   -0.5269   60.1142 O.2     1  ZINC000154446008   -0.5300
     17 C17        -8.0255    0.9427   61.8982 C.2     1  ZINC000154446008   -0.1500
     18 C18        -7.0250    0.6422   62.6976 C.2     1  ZINC000154446008   -0.1100
     19 C19        -7.0018    0.9641   64.1634 C.3     1  ZINC000154446008   -0.1000
     20 C20        -8.0550    2.0263   64.4860 C.3     1  ZINC000154446008   -0.1200
     21 C21        -9.3905    1.5901   63.8710 C.3     1  ZINC000154446008   -0.1200
     22 C22        -9.2656    1.6597   62.3462 C.3     1  ZINC000154446008   -0.0700
     23 C23        -6.8801    2.7271   60.0219 C.3     1  ZINC000154446008    0.1000
     24 C24        -7.5611    3.8061   59.1789 C.3     1  ZINC000154446008    0.1000
     25 H25        -8.7275    4.5720   54.7265 H       1  ZINC000154446008    0.1800
     26 H26        -8.0729    3.7359   52.4103 H       1  ZINC000154446008    0.1800
     27 H27        -9.0277    2.0719   57.4766 H       1  ZINC000154446008    0.0900
     28 H28        -7.7127    1.9700   56.2768 H       1  ZINC000154446008    0.0900
     29 H29        -7.7514    0.0821   58.0064 H       1  ZINC000154446008    0.1100
     30 H30        -6.2110    0.9731   57.8954 H       1  ZINC000154446008    0.0800
     31 H31        -6.1709    0.1339   62.2749 H       1  ZINC000154446008    0.1100
     32 H32        -7.2130    0.0606   64.7353 H       1  ZINC000154446008    0.0900
     33 H33        -6.0152    1.3393   64.4355 H       1  ZINC000154446008    0.0800
     34 H34        -8.1624    2.1192   65.5667 H       1  ZINC000154446008    0.0700
     35 H35        -7.7516    2.9834   64.0618 H       1  ZINC000154446008    0.0700
     36 H36        -9.6184    0.5691   64.1768 H       1  ZINC000154446008    0.0700
     37 H37       -10.1831    2.2606   64.2036 H       1  ZINC000154446008    0.0700
     38 H38        -9.2188    2.7032   62.0347 H       1  ZINC000154446008    0.0800
     39 H39       -10.1358    1.1874   61.8904 H       1  ZINC000154446008    0.0700
     40 H40        -7.1162    2.8802   61.0749 H       1  ZINC000154446008    0.1100
     41 H41        -5.8012    2.7783   59.8751 H       1  ZINC000154446008    0.0800
     42 H42        -7.0715    4.7652   59.3473 H       1  ZINC000154446008    0.1100
     43 H43        -8.6132    3.8763   59.4551 H       1  ZINC000154446008    0.0800
@<TRIPOS>BOND
     1     1     2    2
     2     2     3    1
     3     2    11   am
     4     3    10    1
     5     3     4    2
     6     4     5    1
     7     4    25    1
     8     5     6    2
     9     5    26    1
    10     6     7    1
    11     6    10    1
    12     7     8    2
    13     7     9    2
    14    11    24    1
    15    11    12    1
    16    12    13    1
    17    12    27    1
    18    12    28    1
    19    13    14    1
    20    13    29    1
    21    13    30    1
    22    14    15   am
    23    14    23    1
    24    15    16    2
    25    15    17    1
    26    17    22    1
    27    17    18    2
    28    18    19    1
    29    18    31    1
    30    19    20    1
    31    19    32    1
    32    19    33    1
    33    20    21    1
    34    20    34    1
    35    20    35    1
    36    21    22    1
    37    21    36    1
    38    21    37    1
    39    22    38    1
    40    22    39    1
    41    23    24    1
    42    23    40    1
    43    23    41    1
    44    24    42    1
    45    24    43    1
@<TRIPOS>SUBSTRUCTURE
     1 ZINC000154446008        1 TEMP              0 ****  ****    0 ROOT


##########                                Name:    ZINC000518937710
##########                DOCK_Rotatable_Bonds:                   6
##########                         Heavy_Atoms:                  25
##########                    Molecular_Weight:             397.421
##########                DOCK_Rotatable_Bonds:                   6
##########                       Formal_Charge:          -0.0199997
##########                     HBond_Acceptors:                  11
##########                        HBond_Donors:                   0
##########                         Heavy_Atoms:                  25
##########                          Grid_Score:          -23.430717
##########                     Grid_vdw_energy:          -24.168001
##########                      Grid_es_energy:            0.737284
##########           Internal_energy_repulsive:           16.766148

@<TRIPOS>MOLECULE
ZINC000518937710
 42 44 1 0 0
SMALL
USER_CHARGES


@<TRIPOS>ATOM
      1 C1        -14.6153    0.7523   57.9689 C.3     1  ZINC000518937710   -0.1900
      2 C2        -13.9727   -0.2198   58.9603 C.3     1  ZINC000518937710    0.1700
      3 H3        -13.0321    0.1970   59.3200 H       1  ZINC000518937710    0.1100
      4 C4        -14.9179   -0.4411   60.1429 C.3     1  ZINC000518937710   -0.6600
      5 S5        -14.4259    0.6330   61.5195 S.o2    1  ZINC000518937710    2.4000
      6 C6        -15.5336    0.0761   62.8437 C.3     1  ZINC000518937710   -0.6600
      7 O7        -13.0893    0.3174   61.8846 O.2     1  ZINC000518937710   -0.9200
      8 O8        -14.7561    1.9746   61.1873 O.2     1  ZINC000518937710   -0.9300
      9 N9        -13.7167   -1.4991   58.2939 N.am    1  ZINC000518937710   -0.9600
     10 C10       -14.7347   -2.0859   57.4189 C.3     1  ZINC000518937710    0.0800
     11 C11       -15.0877   -3.5589   57.6348 C.3     1  ZINC000518937710   -0.1800
     12 C12       -16.0750   -2.4666   58.0509 C.3     1  ZINC000518937710   -0.1800
     13 S13       -12.2765   -2.2819   58.5297 S.o2    1  ZINC000518937710    2.6900
     14 O14       -12.1140   -2.4082   59.9357 O.2     1  ZINC000518937710   -0.9400
     15 O15       -12.2741   -3.3932   57.6441 O.2     1  ZINC000518937710   -0.9400
     16 C16       -10.9991   -1.2018   57.9761 C.ar    1  ZINC000518937710   -0.6400
     17 C17       -10.2886   -0.4465   58.8902 C.ar    1  ZINC000518937710   -0.0300
     18 C18        -9.2857    0.4020   58.4596 C.ar    1  ZINC000518937710   -0.1300
     19 C19        -8.9886    0.4982   57.1129 C.ar    1  ZINC000518937710   -0.0300
     20 C20        -9.6965   -0.2558   56.1911 C.ar    1  ZINC000518937710    0.0200
     21 C21       -10.7034   -1.1143   56.6254 C.ar    1  ZINC000518937710    0.1900
     22 O22       -11.2445   -1.7375   55.5382 O.3     1  ZINC000518937710   -0.2800
     23 C23       -10.8386   -0.9507   54.4026 C.3     1  ZINC000518937710    0.5700
     24 F24       -10.6201   -1.7699   53.2898 F       1  ZINC000518937710   -0.1200
     25 F25       -11.7983    0.0250   54.1122 F       1  ZINC000518937710   -0.1400
     26 O26        -9.6036   -0.3444   54.8321 O.3     1  ZINC000518937710   -0.2900
     27 H27       -15.5376    0.3193   57.5815 H       1  ZINC000518937710    0.1000
     28 H28       -14.8391    1.6916   58.4743 H       1  ZINC000518937710    0.0800
     29 H29       -13.9269    0.9382   57.1445 H       1  ZINC000518937710    0.0700
     30 H30       -15.9380   -0.2021   59.8424 H       1  ZINC000518937710    0.1600
     31 H31       -14.8668   -1.4831   60.4589 H       1  ZINC000518937710    0.1400
     32 H32       -15.2996   -0.9564   63.1029 H       1  ZINC000518937710    0.1300
     33 H33       -15.3994    0.7100   63.7202 H       1  ZINC000518937710    0.1300
     34 H34       -16.5672    0.1402   62.5038 H       1  ZINC000518937710    0.1300
     35 H35       -14.7494   -1.7091   56.3962 H       1  ZINC000518937710    0.1500
     36 H36       -15.3347   -4.1515   56.7539 H       1  ZINC000518937710    0.1100
     37 H37       -14.5626   -4.0913   58.4278 H       1  ZINC000518937710    0.1000
     38 H38       -16.1994   -2.2804   59.1176 H       1  ZINC000518937710    0.1000
     39 H39       -16.9715   -2.3407   57.4438 H       1  ZINC000518937710    0.1000
     40 H40       -10.5179   -0.5190   59.9432 H       1  ZINC000518937710    0.1600
     41 H41        -8.7333    0.9911   59.1767 H       1  ZINC000518937710    0.1600
     42 H42        -8.2045    1.1619   56.7793 H       1  ZINC000518937710    0.1500
@<TRIPOS>BOND
     1     1     2    1
     2     1    27    1
     3     1    28    1
     4     1    29    1
     5     2     3    1
     6     2     4    1
     7     2     9    1
     8     4     5    1
     9     4    30    1
    10     4    31    1
    11     5     6    1
    12     5     7    2
    13     5     8    2
    14     6    32    1
    15     6    33    1
    16     6    34    1
    17     9    10    1
    18     9    13   am
    19    10    12    1
    20    10    11    1
    21    10    35    1
    22    11    12    1
    23    11    36    1
    24    11    37    1
    25    12    38    1
    26    12    39    1
    27    13    14    2
    28    13    15    2
    29    13    16    1
    30    16    21   ar
    31    16    17   ar
    32    17    18   ar
    33    17    40    1
    34    18    19   ar
    35    18    41    1
    36    19    20   ar
    37    19    42    1
    38    20    26    1
    39    20    21   ar
    40    21    22    1
    41    22    23    1
    42    23    24    1
    43    23    25    1
    44    23    26    1
@<TRIPOS>SUBSTRUCTURE
     1 ZINC000518937710        1 TEMP              0 ****  ****    0 ROOT


##########                                Name:    ZINC000279974681
##########                DOCK_Rotatable_Bonds:                   4
##########                         Heavy_Atoms:                  23
##########                    Molecular_Weight:              338.79
##########                DOCK_Rotatable_Bonds:                   4
##########                       Formal_Charge:           0.0100008
##########                     HBond_Acceptors:                   7
##########                        HBond_Donors:                   1
##########                         Heavy_Atoms:                  23
##########                          Grid_Score:          -23.398762
##########                     Grid_vdw_energy:          -22.728199
##########                      Grid_es_energy:           -0.670563
##########           Internal_energy_repulsive:            9.986698

@<TRIPOS>MOLECULE
ZINC000279974681
 42 45 1 0 0
SMALL
USER_CHARGES


@<TRIPOS>ATOM
      1 C1         -5.5115    1.3587   51.1563 C.3     1  ZINC000279974681   -0.1400
      2 C2         -6.2218    2.4175   52.0020 C.3     1  ZINC000279974681    0.0700
      3 H3         -5.4848    3.1007   52.4242 H       1  ZINC000279974681    0.0600
      4 C4         -6.9946    1.7336   53.1355 C.3     1  ZINC000279974681    0.1000
      5 N5         -7.8149    2.7482   53.8160 N.am    1  ZINC000279974681   -0.6300
      6 C6         -7.7822    2.8815   55.1569 C.2     1  ZINC000279974681    0.7100
      7 O7         -8.4675    3.7259   55.7007 O.2     1  ZINC000279974681   -0.5600
      8 N8         -6.9899    2.0788   55.8948 N.am    1  ZINC000279974681   -0.6700
      9 C9         -6.9560    2.2176   57.2895 C.ar    1  ZINC000279974681    0.2000
     10 C10        -7.8802    1.5455   58.0765 C.ar    1  ZINC000279974681   -0.1200
     11 C11        -7.8460    1.6825   59.4544 C.ar    1  ZINC000279974681    0.0700
     12 C12        -6.8835    2.4953   60.0478 C.ar    1  ZINC000279974681    0.0200
     13 C13        -5.9624    3.1655   59.2589 C.ar    1  ZINC000279974681   -0.0700
     14 C14        -5.9933    3.0237   57.8841 C.ar    1  ZINC000279974681   -0.0700
     15 Cl15       -4.8378    3.8651   56.8990 Cl      1  ZINC000279974681   -0.0500
     16 O16        -7.0602    2.4628   61.4020 O.3     1  ZINC000279974681   -0.3000
     17 C17        -8.3901    1.9494   61.6039 C.3     1  ZINC000279974681    0.2100
     18 O18        -8.6254    1.1409   60.4360 O.3     1  ZINC000279974681   -0.3000
     19 C19        -8.6715    3.6132   52.9895 C.3     1  ZINC000279974681    0.0800
     20 C20        -7.8170    4.2055   51.8630 C.3     1  ZINC000279974681    0.1100
     21 H21        -7.0864    4.8959   52.2848 H       1  ZINC000279974681    0.0700
     22 C22        -8.7174    4.9534   50.8778 C.3     1  ZINC000279974681   -0.1600
     23 C23        -8.5827    4.6061   49.3938 C.3     1  ZINC000279974681   -0.1700
     24 C24        -9.8163    4.1521   50.1768 C.3     1  ZINC000279974681   -0.1600
     25 O25        -7.1363    3.1490   51.1819 O.3     1  ZINC000279974681   -0.3600
     26 H26        -4.9637    1.8455   50.3494 H       1  ZINC000279974681    0.0700
     27 H27        -4.8158    0.8002   51.7825 H       1  ZINC000279974681    0.0800
     28 H28        -6.2490    0.6759   50.7344 H       1  ZINC000279974681    0.0700
     29 H29        -7.6388    0.9566   52.7240 H       1  ZINC000279974681    0.0800
     30 H30        -6.2934    1.2928   53.8441 H       1  ZINC000279974681    0.1100
     31 H31        -6.4433    1.4052   55.4608 H       1  ZINC000279974681    0.4100
     32 H32        -8.6263    0.9158   57.6147 H       1  ZINC000279974681    0.1800
     33 H33        -5.2161    3.7961   59.7192 H       1  ZINC000279974681    0.1500
     34 H34        -8.4324    1.3400   62.5066 H       1  ZINC000279974681    0.1400
     35 H35        -9.1115    2.7649   61.6569 H       1  ZINC000279974681    0.0900
     36 H36        -9.4845    3.0254   52.5633 H       1  ZINC000279974681    0.0900
     37 H37        -9.0807    4.4171   53.6014 H       1  ZINC000279974681    0.0900
     38 H38        -8.9363    5.9899   51.1346 H       1  ZINC000279974681    0.1100
     39 H39        -8.7128    5.4141   48.6740 H       1  ZINC000279974681    0.1000
     40 H40        -7.8525    3.8447   49.1194 H       1  ZINC000279974681    0.1000
     41 H41        -9.8977    3.0921   50.4176 H       1  ZINC000279974681    0.1000
     42 H42       -10.7579    4.6615   49.9721 H       1  ZINC000279974681    0.1000
@<TRIPOS>BOND
     1     1     2    1
     2     1    26    1
     3     1    27    1
     4     1    28    1
     5     2     3    1
     6     2    25    1
     7     2     4    1
     8     4     5    1
     9     4    29    1
    10     4    30    1
    11     5     6   am
    12     5    19    1
    13     6     7    2
    14     6     8   am
    15     8     9    1
    16     8    31    1
    17     9    14   ar
    18     9    10   ar
    19    10    11   ar
    20    10    32    1
    21    11    18    1
    22    11    12   ar
    23    12    13   ar
    24    12    16    1
    25    13    14   ar
    26    13    33    1
    27    14    15    1
    28    16    17    1
    29    17    18    1
    30    17    34    1
    31    17    35    1
    32    19    20    1
    33    19    36    1
    34    19    37    1
    35    20    21    1
    36    20    22    1
    37    20    25    1
    38    22    24    1
    39    22    23    1
    40    22    38    1
    41    23    24    1
    42    23    39    1
    43    23    40    1
    44    24    41    1
    45    24    42    1
@<TRIPOS>SUBSTRUCTURE
     1 ZINC000279974681        1 TEMP              0 ****  ****    0 ROOT


##########                                Name:    ZINC001076281847
##########                DOCK_Rotatable_Bonds:                   4
##########                         Heavy_Atoms:                  24
##########                    Molecular_Weight:             362.883
##########                DOCK_Rotatable_Bonds:                   4
##########                       Formal_Charge:         -0.00999959
##########                     HBond_Acceptors:                   7
##########                        HBond_Donors:                   0
##########                         Heavy_Atoms:                  24
##########                          Grid_Score:          -23.382498
##########                     Grid_vdw_energy:          -23.652472
##########                      Grid_es_energy:            0.269975
##########           Internal_energy_repulsive:            8.048430

@<TRIPOS>MOLECULE
ZINC001076281847
 43 46 1 0 0
SMALL
USER_CHARGES


@<TRIPOS>ATOM
      1 C1         -0.7792    4.2408   57.2127 C.3     1  ZINC001076281847   -0.0900
      2 C2         -1.6159    4.0678   55.9712 C.2     1  ZINC001076281847    0.1400
      3 N3         -1.0807    3.7544   54.8278 N.2     1  ZINC001076281847   -0.4600
      4 S4         -2.3404    3.6549   53.6965 S.3     1  ZINC001076281847    0.2500
      5 C5         -3.5969    4.0456   54.8050 C.2     1  ZINC001076281847   -0.2100
      6 C6         -5.0710    4.1547   54.5113 C.3     1  ZINC001076281847    0.1200
      7 N7         -5.2837    4.1318   53.0580 N.3     1  ZINC001076281847   -0.5000
      8 C8         -6.5119    4.8551   52.6933 C.3     1  ZINC001076281847    0.0300
      9 C9         -7.1829    4.0515   51.5634 C.3     1  ZINC001076281847   -0.1000
     10 H10        -6.9452    4.4237   50.5669 H       1  ZINC001076281847    0.1200
     11 C11        -8.7059    3.9874   51.8515 C.3     1  ZINC001076281847   -0.1300
     12 C12        -8.7643    2.9701   53.0176 C.3     1  ZINC001076281847    0.1000
     13 N13        -7.7289    1.9708   52.6981 N.am    1  ZINC001076281847   -0.6000
     14 C14        -7.7099    0.6948   53.1315 C.2     1  ZINC001076281847    0.5700
     15 O15        -6.8028   -0.0446   52.8043 O.2     1  ZINC001076281847   -0.4900
     16 C16        -8.7943    0.1940   54.0067 C.ar    1  ZINC001076281847   -0.0800
     17 C17        -9.7886   -0.6522   53.5064 C.ar    1  ZINC001076281847   -0.1800
     18 C18       -10.7813   -1.0964   54.3581 C.ar    1  ZINC001076281847    0.1000
     19 N19       -10.7996   -0.7335   55.6252 N.ar    1  ZINC001076281847   -0.4500
     20 C20        -9.8829    0.0620   56.1385 C.ar    1  ZINC001076281847    0.1100
     21 C21        -8.8493    0.5496   55.3593 C.ar    1  ZINC001076281847   -0.0500
     22 Cl22       -7.6463    1.5966   56.0452 Cl      1  ZINC001076281847   -0.0100
     23 C23        -6.7033    2.5967   51.8163 C.3     1  ZINC001076281847    0.1000
     24 H24        -6.5854    2.0379   50.8877 H       1  ZINC001076281847    0.1100
     25 C25        -5.3693    2.7509   52.5596 C.3     1  ZINC001076281847    0.0200
     26 C26        -2.9843    4.2287   55.9955 C.2     1  ZINC001076281847   -0.1800
     27 H27        -0.7590    3.3046   57.7705 H       1  ZINC001076281847    0.0700
     28 H28         0.2366    4.5177   56.9306 H       1  ZINC001076281847    0.0800
     29 H29        -1.2101    5.0252   57.8349 H       1  ZINC001076281847    0.0900
     30 H30        -5.5956    3.3158   54.9686 H       1  ZINC001076281847    0.1000
     31 H31        -5.4546    5.0895   54.9200 H       1  ZINC001076281847    0.1000
     32 H32        -7.1781    4.9159   53.5539 H       1  ZINC001076281847    0.0600
     33 H33        -6.2641    5.8568   52.3419 H       1  ZINC001076281847    0.0900
     34 H34        -9.0852    4.9604   52.1633 H       1  ZINC001076281847    0.0900
     35 H35        -9.2519    3.6176   50.9835 H       1  ZINC001076281847    0.0800
     36 H36        -8.5370    3.4631   53.9628 H       1  ZINC001076281847    0.0800
     37 H37        -9.7461    2.4987   53.0610 H       1  ZINC001076281847    0.0800
     38 H38        -9.7809   -0.9538   52.4694 H       1  ZINC001076281847    0.1800
     39 H39       -11.5537   -1.7500   53.9803 H       1  ZINC001076281847    0.1700
     40 H40        -9.9370    0.3335   57.1824 H       1  ZINC001076281847    0.1700
     41 H41        -4.5429    2.5351   51.8824 H       1  ZINC001076281847    0.1000
     42 H42        -5.3387    2.0670   53.4078 H       1  ZINC001076281847    0.0700
     43 H43        -3.5242    4.4877   56.8943 H       1  ZINC001076281847    0.1400
@<TRIPOS>BOND
     1     1     2    1
     2     1    27    1
     3     1    28    1
     4     1    29    1
     5     2    26    1
     6     2     3    2
     7     3     4    1
     8     4     5    1
     9     5     6    1
    10     5    26    2
    11     6     7    1
    12     6    30    1
    13     6    31    1
    14     7    25    1
    15     7     8    1
    16     8     9    1
    17     8    32    1
    18     8    33    1
    19     9    10    1
    20     9    23    1
    21     9    11    1
    22    11    12    1
    23    11    34    1
    24    11    35    1
    25    12    13    1
    26    12    36    1
    27    12    37    1
    28    13    14   am
    29    13    23    1
    30    14    15    2
    31    14    16    1
    32    16    21   ar
    33    16    17   ar
    34    17    18   ar
    35    17    38    1
    36    18    19   ar
    37    18    39    1
    38    19    20   ar
    39    20    21   ar
    40    20    40    1
    41    21    22    1
    42    23    24    1
    43    23    25    1
    44    25    41    1
    45    25    42    1
    46    26    43    1
@<TRIPOS>SUBSTRUCTURE
     1 ZINC001076281847        1 TEMP              0 ****  ****    0 ROOT


##########                                Name:    ZINC000836820897
##########                DOCK_Rotatable_Bonds:                   5
##########                         Heavy_Atoms:                  22
##########                    Molecular_Weight:             330.355
##########                DOCK_Rotatable_Bonds:                   5
##########                       Formal_Charge:          -0.0200003
##########                     HBond_Acceptors:                   8
##########                        HBond_Donors:                   1
##########                         Heavy_Atoms:                  22
##########                          Grid_Score:          -23.256639
##########                     Grid_vdw_energy:          -22.570156
##########                      Grid_es_energy:           -0.686484
##########           Internal_energy_repulsive:            9.689706

@<TRIPOS>MOLECULE
ZINC000836820897
 38 40 1 0 0
SMALL
USER_CHARGES


@<TRIPOS>ATOM
      1 O1         -9.6463   -1.8483   53.4858 O.2     1  ZINC000836820897   -0.5200
      2 C2         -9.5362   -0.9855   54.3351 C.2     1  ZINC000836820897    0.5800
      3 C3         -9.1888    0.3960   53.9439 C.ar    1  ZINC000836820897   -0.1600
      4 C4        -10.1084    1.4297   54.1317 C.ar    1  ZINC000836820897   -0.0100
      5 C5         -9.7787    2.7172   53.7653 C.ar    1  ZINC000836820897   -0.1700
      6 C6         -8.5369    2.9864   53.2111 C.ar    1  ZINC000836820897    0.2200
      7 F7         -8.2189    4.2500   52.8538 F       1  ZINC000836820897   -0.1100
      8 C8         -7.6196    1.9636   53.0227 C.ar    1  ZINC000836820897   -0.7200
      9 S9         -6.0430    2.3148   52.3188 S.o2    1  ZINC000836820897    2.7000
     10 O10        -5.5222    1.0742   51.8619 O.2     1  ZINC000836820897   -0.9400
     11 O11        -6.2238    3.4411   51.4714 O.2     1  ZINC000836820897   -0.9400
     12 N12        -5.0551    2.8110   53.5518 N.am    1  ZINC000836820897   -1.0800
     13 C13        -5.4036    3.9974   54.3373 C.3     1  ZINC000836820897    0.0700
     14 C14        -5.1283    3.9546   55.8418 C.3     1  ZINC000836820897   -0.1800
     15 C15        -4.2540    4.8160   54.9283 C.3     1  ZINC000836820897   -0.1900
     16 C16        -7.9370    0.6737   53.3900 C.ar    1  ZINC000836820897    0.0600
     17 N17        -9.7366   -1.2881   55.6331 N.am    1  ZINC000836820897   -0.6200
     18 C18       -10.0798   -2.6170   56.1600 C.3     1  ZINC000836820897    0.0900
     19 C19       -10.1824   -2.4889   57.6946 C.3     1  ZINC000836820897   -0.1600
     20 C20        -9.3368   -1.2232   57.9950 C.3     1  ZINC000836820897    0.0800
     21 H21        -8.2753   -1.4653   58.0451 H       1  ZINC000836820897    0.1100
     22 F22        -9.7634   -0.6035   59.1744 F       1  ZINC000836820897   -0.1900
     23 C23        -9.6419   -0.3426   56.7603 C.3     1  ZINC000836820897    0.0800
     24 H24       -11.0763    1.2209   54.5631 H       1  ZINC000836820897    0.1500
     25 H25       -10.4895    3.5175   53.9099 H       1  ZINC000836820897    0.1600
     26 H26        -4.2457    2.3160   53.7539 H       1  ZINC000836820897    0.4200
     27 H27        -6.2876    4.5401   54.0024 H       1  ZINC000836820897    0.1400
     28 H28        -5.8313    4.4689   56.4969 H       1  ZINC000836820897    0.1100
     29 H29        -4.6879    3.0435   56.2470 H       1  ZINC000836820897    0.1000
     30 H30        -3.2385    4.4719   54.7327 H       1  ZINC000836820897    0.1000
     31 H31        -4.3819    5.8972   54.9825 H       1  ZINC000836820897    0.1000
     32 H32        -7.2218   -0.1221   53.2431 H       1  ZINC000836820897    0.1600
     33 H33       -11.0360   -2.9426   55.7505 H       1  ZINC000836820897    0.0800
     34 H34        -9.2996   -3.3321   55.8990 H       1  ZINC000836820897    0.0800
     35 H35       -11.2181   -2.3424   58.0010 H       1  ZINC000836820897    0.0900
     36 H36        -9.7543   -3.3637   58.1841 H       1  ZINC000836820897    0.1000
     37 H37        -8.8348    0.3710   56.5944 H       1  ZINC000836820897    0.1000
     38 H38       -10.5898    0.1792   56.8914 H       1  ZINC000836820897    0.0900
@<TRIPOS>BOND
     1     1     2    2
     2     2     3    1
     3     2    17   am
     4     3    16   ar
     5     3     4   ar
     6     4     5   ar
     7     4    24    1
     8     5     6   ar
     9     5    25    1
    10     6     7    1
    11     6     8   ar
    12     8     9    1
    13     8    16   ar
    14     9    10    2
    15     9    11    2
    16     9    12   am
    17    12    13    1
    18    12    26    1
    19    13    15    1
    20    13    14    1
    21    13    27    1
    22    14    15    1
    23    14    28    1
    24    14    29    1
    25    15    30    1
    26    15    31    1
    27    16    32    1
    28    17    23    1
    29    17    18    1
    30    18    19    1
    31    18    33    1
    32    18    34    1
    33    19    20    1
    34    19    35    1
    35    19    36    1
    36    20    21    1
    37    20    22    1
    38    20    23    1
    39    23    37    1
    40    23    38    1
@<TRIPOS>SUBSTRUCTURE
     1 ZINC000836820897        1 TEMP              0 ****  ****    0 ROOT


##########                                Name:    ZINC001456096501
##########                DOCK_Rotatable_Bonds:                   7
##########                         Heavy_Atoms:                  24
##########                    Molecular_Weight:             333.431
##########                DOCK_Rotatable_Bonds:                   7
##########                       Formal_Charge:          -0.0200003
##########                     HBond_Acceptors:                   6
##########                        HBond_Donors:                   0
##########                         Heavy_Atoms:                  24
##########                          Grid_Score:          -23.076303
##########                     Grid_vdw_energy:          -21.644251
##########                      Grid_es_energy:           -1.432052
##########           Internal_energy_repulsive:          133.007538

@<TRIPOS>MOLECULE
ZINC001456096501
 51 52 1 0 0
SMALL
USER_CHARGES


@<TRIPOS>ATOM
      1 C1         -5.5881    1.7641   51.6385 C.3     1  ZINC001456096501    0.0400
      2 O2         -6.4586    2.4401   52.5480 O.3     1  ZINC001456096501   -0.2900
      3 C3         -7.5712    3.0091   52.0262 C.ar    1  ZINC001456096501    0.3700
      4 N4         -7.5938    3.3598   50.7517 N.ar    1  ZINC001456096501   -0.5400
      5 C5         -8.6563    3.9163   50.2026 C.ar    1  ZINC001456096501    0.1600
      6 C6         -9.8002    4.1588   50.9413 C.ar    1  ZINC001456096501   -0.2200
      7 C7         -9.8319    3.8117   52.2805 C.ar    1  ZINC001456096501   -0.0200
      8 C8         -8.6950    3.2177   52.8401 C.ar    1  ZINC001456096501   -0.2000
      9 C9         -8.6747    2.8274   54.2627 C.2     1  ZINC001456096501    0.5900
     10 O10        -9.3403    1.8840   54.6439 O.2     1  ZINC001456096501   -0.5100
     11 N11        -7.9182    3.5166   55.1398 N.am    1  ZINC001456096501   -0.6200
     12 C12        -7.0692    4.6725   54.8160 C.3     1  ZINC001456096501    0.1000
     13 C13        -6.3771    5.1129   56.1231 C.3     1  ZINC001456096501   -0.1200
     14 C14        -6.4368    3.8321   56.9967 C.3     1  ZINC001456096501   -0.1200
     15 H15        -5.6233    3.1508   56.7474 H       1  ZINC001456096501    0.0900
     16 C16        -6.4179    4.1827   58.4859 C.3     1  ZINC001456096501    0.1200
     17 N17        -7.2970    3.2649   59.2148 N.am    1  ZINC001456096501   -0.6200
     18 C18        -8.5367    3.7615   59.8170 C.3     1  ZINC001456096501    0.0600
     19 C19        -6.9653    1.9638   59.3310 C.2     1  ZINC001456096501    0.5200
     20 O20        -5.9391    1.5527   58.8325 O.2     1  ZINC001456096501   -0.5300
     21 C21        -7.8697    1.0198   60.0808 C.3     1  ZINC001456096501   -0.0800
     22 C22        -7.7733    1.3048   61.5809 C.3     1  ZINC001456096501   -0.1300
     23 C23        -9.3135    1.2192   59.6155 C.3     1  ZINC001456096501   -0.1500
     24 C24        -7.4404   -0.4230   59.8072 C.3     1  ZINC001456096501   -0.1700
     25 C25        -7.8101    3.2404   56.5839 C.3     1  ZINC001456096501    0.1200
     26 H26        -6.1302    0.9539   51.1508 H       1  ZINC001456096501    0.0600
     27 H27        -5.2318    2.4675   50.8858 H       1  ZINC001456096501    0.0600
     28 H28        -4.7381    1.3553   52.1849 H       1  ZINC001456096501    0.1000
     29 H29        -8.6324    4.1879   49.1577 H       1  ZINC001456096501    0.1700
     30 H30       -10.6616    4.6156   50.4768 H       1  ZINC001456096501    0.1500
     31 H31       -10.7134    3.9913   52.8780 H       1  ZINC001456096501    0.1500
     32 H32        -6.3199    4.3868   54.0778 H       1  ZINC001456096501    0.0700
     33 H33        -7.6825    5.4861   54.4289 H       1  ZINC001456096501    0.0700
     34 H34        -5.3435    5.4026   55.9335 H       1  ZINC001456096501    0.0900
     35 H35        -6.9266    5.9276   56.5948 H       1  ZINC001456096501    0.0800
     36 H36        -5.4010    4.0917   58.8676 H       1  ZINC001456096501    0.0800
     37 H37        -6.7673    5.2060   58.6227 H       1  ZINC001456096501    0.0900
     38 H38        -9.3599    3.6300   59.1148 H       1  ZINC001456096501    0.0600
     39 H39        -8.7456    3.2043   60.7303 H       1  ZINC001456096501    0.0900
     40 H40        -8.4270    4.8197   60.0541 H       1  ZINC001456096501    0.0700
     41 H41        -8.0791    2.3326   61.7759 H       1  ZINC001456096501    0.0600
     42 H42        -8.4273    0.6220   62.1232 H       1  ZINC001456096501    0.0600
     43 H43        -6.7446    1.1627   61.9123 H       1  ZINC001456096501    0.0600
     44 H44        -9.3585    1.1459   58.5289 H       1  ZINC001456096501    0.0700
     45 H45        -9.9473    0.4508   60.0581 H       1  ZINC001456096501    0.0700
     46 H46        -9.6634    2.2031   59.9280 H       1  ZINC001456096501    0.0600
     47 H47        -6.4117   -0.5651   60.1386 H       1  ZINC001456096501    0.0600
     48 H48        -8.0944   -1.1058   60.3495 H       1  ZINC001456096501    0.0700
     49 H49        -7.5090   -0.6260   58.7384 H       1  ZINC001456096501    0.0800
     50 H50        -8.6148    3.7318   57.1308 H       1  ZINC001456096501    0.0800
     51 H51        -7.8295    2.1655   56.7635 H       1  ZINC001456096501    0.0700
@<TRIPOS>BOND
     1     1     2    1
     2     1    26    1
     3     1    27    1
     4     1    28    1
     5     2     3    1
     6     3     8   ar
     7     3     4   ar
     8     4     5   ar
     9     5     6   ar
    10     5    29    1
    11     6     7   ar
    12     6    30    1
    13     7     8   ar
    14     7    31    1
    15     8     9    1
    16     9    10    2
    17     9    11   am
    18    11    25    1
    19    11    12    1
    20    12    13    1
    21    12    32    1
    22    12    33    1
    23    13    14    1
    24    13    34    1
    25    13    35    1
    26    14    15    1
    27    14    16    1
    28    14    25    1
    29    16    17    1
    30    16    36    1
    31    16    37    1
    32    17    18    1
    33    17    19   am
    34    18    38    1
    35    18    39    1
    36    18    40    1
    37    19    20    2
    38    19    21    1
    39    21    22    1
    40    21    23    1
    41    21    24    1
    42    22    41    1
    43    22    42    1
    44    22    43    1
    45    23    44    1
    46    23    45    1
    47    23    46    1
    48    24    47    1
    49    24    48    1
    50    24    49    1
    51    25    50    1
    52    25    51    1
@<TRIPOS>SUBSTRUCTURE
     1 ZINC001456096501        1 TEMP              0 ****  ****    0 ROOT


##########                                Name:    ZINC000616491533
##########                DOCK_Rotatable_Bonds:                   4
##########                         Heavy_Atoms:                  27
##########                    Molecular_Weight:             375.418
##########                DOCK_Rotatable_Bonds:                   4
##########                       Formal_Charge:           0.0299996
##########                     HBond_Acceptors:                   7
##########                        HBond_Donors:                   0
##########                         Heavy_Atoms:                  27
##########                          Grid_Score:          -23.056719
##########                     Grid_vdw_energy:          -20.402267
##########                      Grid_es_energy:           -2.654452
##########           Internal_energy_repulsive:           10.544496

@<TRIPOS>MOLECULE
ZINC000616491533
 50 53 1 0 0
SMALL
USER_CHARGES


@<TRIPOS>ATOM
      1 C1        -11.5622    3.1283   64.9176 C.3     1  ZINC000616491533   -0.1700
      2 C2        -10.1431    3.6966   64.8552 C.3     1  ZINC000616491533    0.1400
      3 H3        -10.1823    4.7815   64.7571 H       1  ZINC000616491533    0.0800
      4 C4         -9.3669    3.3128   66.1345 C.3     1  ZINC000616491533   -0.1200
      5 C5         -8.5548    2.0797   65.6867 C.3     1  ZINC000616491533   -0.0700
      6 C6         -8.2255    2.4103   64.2184 C.3     1  ZINC000616491533    0.0900
      7 N7         -9.4220    3.1168   63.7119 N.am    1  ZINC000616491533   -0.6100
      8 C8         -9.7900    3.2098   62.4187 C.2     1  ZINC000616491533    0.6100
      9 O9        -10.7998    3.8160   62.1160 O.2     1  ZINC000616491533   -0.5200
     10 C10        -8.9684    2.5768   61.3712 C.2     1  ZINC000616491533   -0.2400
     11 C11        -8.3328    3.2199   60.3279 C.2     1  ZINC000616491533    0.0700
     12 C12        -8.3506    4.7006   60.0489 C.3     1  ZINC000616491533    0.3400
     13 F13        -9.5156    5.0291   59.3473 F       1  ZINC000616491533   -0.1900
     14 F14        -8.3207    5.4034   61.2581 F       1  ZINC000616491533   -0.1600
     15 N15        -7.6940    2.2808   59.6065 N.pl3   1  ZINC000616491533   -0.2900
     16 C16        -6.9253    2.5125   58.4576 C.ar    1  ZINC000616491533    0.1300
     17 C17        -5.6978    3.1534   58.5594 C.ar    1  ZINC000616491533   -0.1000
     18 C18        -4.9427    3.3802   57.4255 C.ar    1  ZINC000616491533   -0.1000
     19 C19        -5.4082    2.9701   56.1896 C.ar    1  ZINC000616491533   -0.1000
     20 C20        -6.6302    2.3317   56.0850 C.ar    1  ZINC000616491533   -0.1000
     21 C21        -7.3871    2.0964   57.2160 C.ar    1  ZINC000616491533   -0.0900
     22 N22        -7.9268    1.0338   60.1972 N.2     1  ZINC000616491533   -0.2600
     23 C23        -8.6792    1.1987   61.2504 C.2     1  ZINC000616491533    0.0700
     24 C24        -7.2806    1.9485   66.5084 C.3     1  ZINC000616491533   -0.1400
     25 C25        -6.5232    0.6906   66.0689 C.3     1  ZINC000616491533    0.0600
     26 O26        -7.3820   -0.4450   66.1932 O.3     1  ZINC000616491533   -0.3800
     27 C27        -8.5501   -0.3909   65.3716 C.3     1  ZINC000616491533    0.0600
     28 C28        -9.4002    0.8177   65.7788 C.3     1  ZINC000616491533   -0.1500
     29 H29       -11.5154    2.0427   65.0032 H       1  ZINC000616491533    0.0600
     30 H30       -12.0803    3.5391   65.7842 H       1  ZINC000616491533    0.0600
     31 H31       -12.1019    3.3984   64.0099 H       1  ZINC000616491533    0.0800
     32 H32        -8.7033    4.1215   66.4405 H       1  ZINC000616491533    0.0800
     33 H33       -10.0542    3.0507   66.9389 H       1  ZINC000616491533    0.0900
     34 H34        -7.3513    3.0588   64.1622 H       1  ZINC000616491533    0.0800
     35 H35        -8.0570    1.4945   63.6517 H       1  ZINC000616491533    0.0800
     36 H36        -7.4791    4.9683   59.4514 H       1  ZINC000616491533    0.1400
     37 H37        -5.3341    3.4746   59.5243 H       1  ZINC000616491533    0.1300
     38 H38        -3.9878    3.8788   57.5040 H       1  ZINC000616491533    0.1400
     39 H39        -4.8162    3.1494   55.3042 H       1  ZINC000616491533    0.1300
     40 H40        -6.9911    2.0125   55.1184 H       1  ZINC000616491533    0.1400
     41 H41        -8.3416    1.5976   57.1338 H       1  ZINC000616491533    0.1300
     42 H42        -9.0256    0.4176   61.9109 H       1  ZINC000616491533    0.2100
     43 H43        -6.6530    2.8254   66.3493 H       1  ZINC000616491533    0.0800
     44 H44        -7.5355    1.8694   67.5652 H       1  ZINC000616491533    0.0800
     45 H45        -6.2104    0.7983   65.0303 H       1  ZINC000616491533    0.0500
     46 H46        -5.6459    0.5544   66.7014 H       1  ZINC000616491533    0.1000
     47 H47        -8.2558   -0.2932   64.3267 H       1  ZINC000616491533    0.0500
     48 H48        -9.1300   -1.3045   65.5030 H       1  ZINC000616491533    0.1000
     49 H49        -9.7502    0.6880   66.8029 H       1  ZINC000616491533    0.0800
     50 H50       -10.2559    0.9031   65.1091 H       1  ZINC000616491533    0.0800
@<TRIPOS>BOND
     1     1     2    1
     2     1    29    1
     3     1    30    1
     4     1    31    1
     5     2     3    1
     6     2     7    1
     7     2     4    1
     8     4     5    1
     9     4    32    1
    10     4    33    1
    11     5    28    1
    12     5     6    1
    13     5    24    1
    14     6     7    1
    15     6    34    1
    16     6    35    1
    17     7     8   am
    18     8     9    2
    19     8    10    1
    20    10    23    1
    21    10    11    2
    22    11    12    1
    23    11    15    1
    24    12    13    1
    25    12    14    1
    26    12    36    1
    27    15    16    1
    28    15    22    1
    29    16    21   ar
    30    16    17   ar
    31    17    18   ar
    32    17    37    1
    33    18    19   ar
    34    18    38    1
    35    19    20   ar
    36    19    39    1
    37    20    21   ar
    38    20    40    1
    39    21    41    1
    40    22    23    2
    41    23    42    1
    42    24    25    1
    43    24    43    1
    44    24    44    1
    45    25    26    1
    46    25    45    1
    47    25    46    1
    48    26    27    1
    49    27    28    1
    50    27    47    1
    51    27    48    1
    52    28    49    1
    53    28    50    1
@<TRIPOS>SUBSTRUCTURE
     1 ZINC000616491533        1 TEMP              0 ****  ****    0 ROOT


##########                                Name:    ZINC000002873519
##########                DOCK_Rotatable_Bonds:                   5
##########                         Heavy_Atoms:                  25
##########                    Molecular_Weight:             375.207
##########                DOCK_Rotatable_Bonds:                   5
##########                       Formal_Charge:               -0.02
##########                     HBond_Acceptors:                   6
##########                        HBond_Donors:                   0
##########                         Heavy_Atoms:                  25
##########                          Grid_Score:          -23.047016
##########                     Grid_vdw_energy:          -23.107792
##########                      Grid_es_energy:            0.060776
##########           Internal_energy_repulsive:            7.214772

@<TRIPOS>MOLECULE
ZINC000002873519
 37 39 1 0 0
SMALL
USER_CHARGES


@<TRIPOS>ATOM
      1 C1        -10.4997   -0.2983   60.3803 C.3     1  ZINC000002873519   -0.1500
      2 C2        -11.8570    0.2626   60.7186 C.2     1  ZINC000002873519    0.4500
      3 O3        -12.1718    0.4275   61.8734 O.2     1  ZINC000002873519   -0.4800
      4 O4        -12.7164    0.5792   59.7365 O.3     1  ZINC000002873519   -0.2900
      5 C5        -13.4275   -0.4385   59.1880 C.ar    1  ZINC000002873519    0.1200
      6 C6        -14.0683   -1.3575   60.0021 C.ar    1  ZINC000002873519   -0.1100
      7 C7        -14.7928   -2.3935   59.4435 C.ar    1  ZINC000002873519   -0.0800
      8 C8        -14.8859   -2.5238   58.0658 C.ar    1  ZINC000002873519   -0.0400
      9 Cl9       -15.8007   -3.8310   57.3818 Cl      1  ZINC000002873519   -0.0500
     10 C10       -14.2560   -1.6203   57.2373 C.ar    1  ZINC000002873519   -0.0800
     11 C11       -13.5221   -0.5616   57.7897 C.ar    1  ZINC000002873519   -0.0700
     12 C12       -12.8502    0.4031   56.9180 C.2     1  ZINC000002873519    0.0400
     13 C13       -11.6934    0.0447   56.2538 C.2     1  ZINC000002873519   -0.1900
     14 C14       -10.8786    0.8720   55.3473 C.2     1  ZINC000002873519   -0.2000
     15 C15        -9.8505    0.0970   54.9424 C.2     1  ZINC000002873519    0.1200
     16 C16        -8.7870    0.5393   54.0187 C.ar    1  ZINC000002873519   -0.0400
     17 C17        -8.1433   -0.3871   53.1951 C.ar    1  ZINC000002873519   -0.0800
     18 C18        -7.1508    0.0324   52.3346 C.ar    1  ZINC000002873519   -0.1100
     19 C19        -6.7916    1.3691   52.2861 C.ar    1  ZINC000002873519   -0.0200
     20 Cl20       -5.5412    1.8892   51.2000 Cl      1  ZINC000002873519   -0.0600
     21 C21        -7.4261    2.2927   53.1000 C.ar    1  ZINC000002873519   -0.1100
     22 C22        -8.4245    1.8870   53.9605 C.ar    1  ZINC000002873519   -0.0800
     23 O23        -9.9191   -1.1328   55.4904 O.3     1  ZINC000002873519   -0.2600
     24 C24       -10.9896   -1.2512   56.2963 C.2     1  ZINC000002873519    0.5200
     25 O25       -11.3180   -2.2370   56.9295 O.2     1  ZINC000002873519   -0.4200
     26 H26       -10.5583   -1.3855   60.3295 H       1  ZINC000002873519    0.1100
     27 H27       -10.1746    0.0936   59.4166 H       1  ZINC000002873519    0.1000
     28 H28        -9.7847   -0.0085   61.1503 H       1  ZINC000002873519    0.1100
     29 H29       -14.0014   -1.2646   61.0761 H       1  ZINC000002873519    0.1500
     30 H30       -15.2897   -3.1067   60.0843 H       1  ZINC000002873519    0.1500
     31 H31       -14.3307   -1.7258   56.1651 H       1  ZINC000002873519    0.1500
     32 H32       -13.2588    1.3951   56.7941 H       1  ZINC000002873519    0.1500
     33 H33       -11.0672    1.8964   55.0621 H       1  ZINC000002873519    0.1700
     34 H34        -8.4220   -1.4300   53.2325 H       1  ZINC000002873519    0.1400
     35 H35        -6.6522   -0.6830   51.6973 H       1  ZINC000002873519    0.1400
     36 H36        -7.1412    3.3337   53.0577 H       1  ZINC000002873519    0.1400
     37 H37        -8.9185    2.6082   54.5947 H       1  ZINC000002873519    0.1400
@<TRIPOS>BOND
     1     1     2    1
     2     1    26    1
     3     1    27    1
     4     1    28    1
     5     2     3    2
     6     2     4    1
     7     4     5    1
     8     5    11   ar
     9     5     6   ar
    10     6     7   ar
    11     6    29    1
    12     7     8   ar
    13     7    30    1
    14     8     9    1
    15     8    10   ar
    16    10    11   ar
    17    10    31    1
    18    11    12    1
    19    12    13    2
    20    12    32    1
    21    13    24    1
    22    13    14    1
    23    14    15    2
    24    14    33    1
    25    15    16    1
    26    15    23    1
    27    16    22   ar
    28    16    17   ar
    29    17    18   ar
    30    17    34    1
    31    18    19   ar
    32    18    35    1
    33    19    20    1
    34    19    21   ar
    35    21    22   ar
    36    21    36    1
    37    22    37    1
    38    23    24    1
    39    24    25    2
@<TRIPOS>SUBSTRUCTURE
     1 ZINC000002873519        1 TEMP              0 ****  ****    0 ROOT


##########                                Name:    ZINC000455156110
##########                DOCK_Rotatable_Bonds:                   4
##########                         Heavy_Atoms:                  27
##########                    Molecular_Weight:             370.424
##########                DOCK_Rotatable_Bonds:                   4
##########                       Formal_Charge:           0.0100002
##########                     HBond_Acceptors:                   6
##########                        HBond_Donors:                   1
##########                         Heavy_Atoms:                  27
##########                          Grid_Score:          -23.007114
##########                     Grid_vdw_energy:          -23.249401
##########                      Grid_es_energy:            0.242287
##########           Internal_energy_repulsive:           55.389931

@<TRIPOS>MOLECULE
ZINC000455156110
 50 53 1 0 0
SMALL
USER_CHARGES


@<TRIPOS>ATOM
      1 C1         -4.1278    2.4160   51.3698 C.3     1  ZINC000455156110    0.0300
      2 O2         -4.6555    2.9368   52.5915 O.3     1  ZINC000455156110   -0.3100
      3 C3         -5.7265    2.2910   53.1266 C.ar    1  ZINC000455156110    0.0900
      4 C4         -6.2872    2.7428   54.3108 C.ar    1  ZINC000455156110   -0.1600
      5 C5         -7.3753    2.0876   54.8551 C.ar    1  ZINC000455156110   -0.0800
      6 C6         -7.9837    2.5795   56.1431 C.3     1  ZINC000455156110   -0.1100
      7 C7         -7.9082    0.9768   54.2159 C.ar    1  ZINC000455156110    0.1500
      8 N8         -9.0122    0.3132   54.7678 N.am    1  ZINC000455156110   -0.6700
      9 C9        -10.2370    0.8713   54.6997 C.2     1  ZINC000455156110    0.7200
     10 O10       -10.3842    1.9506   54.1593 O.2     1  ZINC000455156110   -0.5500
     11 N11       -11.2988    0.2330   55.2305 N.am    1  ZINC000455156110   -0.5600
     12 C12       -12.6768    0.7347   55.2129 C.3     1  ZINC000455156110    0.1000
     13 C13       -13.5004   -0.3407   55.9318 C.3     1  ZINC000455156110   -0.0200
     14 C14       -14.1654    0.2449   57.1754 C.3     1  ZINC000455156110   -0.1400
     15 C15       -15.2019    1.2884   56.7472 C.3     1  ZINC000455156110    0.0600
     16 O16       -16.1470    0.6827   55.8627 O.3     1  ZINC000455156110   -0.3800
     17 C17       -15.5771    0.1768   54.6537 C.3     1  ZINC000455156110    0.0600
     18 C18       -14.5571   -0.9151   54.9910 C.3     1  ZINC000455156110   -0.1400
     19 C19       -12.5030   -1.4041   56.3173 C.ar    1  ZINC000455156110   -0.1300
     20 C20       -12.6616   -2.6038   56.9839 C.ar    1  ZINC000455156110   -0.0700
     21 C21       -11.5695   -3.4185   57.2191 C.ar    1  ZINC000455156110   -0.1400
     22 C22       -10.3154   -3.0302   56.7854 C.ar    1  ZINC000455156110   -0.0900
     23 C23       -10.1515   -1.8335   56.1205 C.ar    1  ZINC000455156110   -0.1300
     24 C24       -11.2495   -1.0082   55.8739 C.ar    1  ZINC000455156110    0.1600
     25 C25        -7.3475    0.5236   53.0291 C.ar    1  ZINC000455156110   -0.1200
     26 C26        -6.2618    1.1821   52.4827 C.ar    1  ZINC000455156110    0.0900
     27 F27        -5.7157    0.7423   51.3279 F       1  ZINC000455156110   -0.1300
     28 H28        -3.2790    3.0220   51.0531 H       1  ZINC000455156110    0.1000
     29 H29        -3.8024    1.3872   51.5241 H       1  ZINC000455156110    0.0600
     30 H30        -4.8996    2.4414   50.6006 H       1  ZINC000455156110    0.0600
     31 H31        -5.8733    3.6073   54.8086 H       1  ZINC000455156110    0.1400
     32 H32        -8.7638    3.3078   55.9216 H       1  ZINC000455156110    0.0800
     33 H33        -8.4154    1.7383   56.6856 H       1  ZINC000455156110    0.0600
     34 H34        -7.2120    3.0481   56.7538 H       1  ZINC000455156110    0.0800
     35 H35        -8.8948   -0.5478   55.1988 H       1  ZINC000455156110    0.4100
     36 H36       -12.7418    1.6821   55.7479 H       1  ZINC000455156110    0.0800
     37 H37       -13.0234    0.8538   54.1864 H       1  ZINC000455156110    0.0900
     38 H38       -14.6588   -0.5508   57.7335 H       1  ZINC000455156110    0.0800
     39 H39       -13.4106    0.7176   57.8037 H       1  ZINC000455156110    0.0800
     40 H40       -15.7198    1.6690   57.6275 H       1  ZINC000455156110    0.1000
     41 H41       -14.7006    2.1104   56.2361 H       1  ZINC000455156110    0.0500
     42 H42       -16.3650   -0.2422   54.0278 H       1  ZINC000455156110    0.1000
     43 H43       -15.0797    0.9865   54.1195 H       1  ZINC000455156110    0.0500
     44 H44       -14.0791   -1.2626   54.0751 H       1  ZINC000455156110    0.0800
     45 H45       -15.0634   -1.7488   55.4776 H       1  ZINC000455156110    0.0800
     46 H46       -13.6415   -2.9060   57.3226 H       1  ZINC000455156110    0.1300
     47 H47       -11.6958   -4.3556   57.7406 H       1  ZINC000455156110    0.1300
     48 H48        -9.4617   -3.6659   56.9684 H       1  ZINC000455156110    0.1300
     49 H49        -9.1692   -1.5355   55.7847 H       1  ZINC000455156110    0.1400
     50 H50        -7.7617   -0.3406   52.5312 H       1  ZINC000455156110    0.1700
@<TRIPOS>BOND
     1     1     2    1
     2     1    28    1
     3     1    29    1
     4     1    30    1
     5     2     3    1
     6     3    26   ar
     7     3     4   ar
     8     4     5   ar
     9     4    31    1
    10     5     6    1
    11     5     7   ar
    12     6    32    1
    13     6    33    1
    14     6    34    1
    15     7     8    1
    16     7    25   ar
    17     8     9   am
    18     8    35    1
    19     9    10    2
    20     9    11   am
    21    11    24    1
    22    11    12    1
    23    12    13    1
    24    12    36    1
    25    12    37    1
    26    13    18    1
    27    13    14    1
    28    13    19    1
    29    14    15    1
    30    14    38    1
    31    14    39    1
    32    15    16    1
    33    15    40    1
    34    15    41    1
    35    16    17    1
    36    17    18    1
    37    17    42    1
    38    17    43    1
    39    18    44    1
    40    18    45    1
    41    19    24   ar
    42    19    20   ar
    43    20    21   ar
    44    20    46    1
    45    21    22   ar
    46    21    47    1
    47    22    23   ar
    48    22    48    1
    49    23    24   ar
    50    23    49    1
    51    25    26   ar
    52    25    50    1
    53    26    27    1
@<TRIPOS>SUBSTRUCTURE
     1 ZINC000455156110        1 TEMP              0 ****  ****    0 ROOT


##########                                Name:    ZINC000277311370
##########                DOCK_Rotatable_Bonds:                   5
##########                         Heavy_Atoms:                  17
##########                    Molecular_Weight:             361.036
##########                DOCK_Rotatable_Bonds:                   5
##########                       Formal_Charge:        -7.45058e-08
##########                     HBond_Acceptors:                   4
##########                        HBond_Donors:                   1
##########                         Heavy_Atoms:                  17
##########                          Grid_Score:          -22.930817
##########                     Grid_vdw_energy:          -22.723309
##########                      Grid_es_energy:           -0.207508
##########           Internal_energy_repulsive:            9.276920

@<TRIPOS>MOLECULE
ZINC000277311370
 28 28 1 0 0
SMALL
USER_CHARGES


@<TRIPOS>ATOM
      1 C1         -1.2979    2.4127   57.4299 C.3     1  ZINC000277311370   -0.1500
      2 C2         -0.8409    3.8682   57.3129 C.3     1  ZINC000277311370   -0.1000
      3 C3          0.6690    3.9107   57.0692 C.3     1  ZINC000277311370   -0.1600
      4 C4         -1.5653    4.5377   56.1433 C.3     1  ZINC000277311370    0.2500
      5 H5         -1.1124    5.5088   55.9433 H       1  ZINC000277311370    0.1400
      6 C6         -2.9855    4.7195   56.4850 C.1     1  ZINC000277311370    0.1900
      7 N7         -4.0814    4.8598   56.7487 N.1     1  ZINC000277311370   -0.4100
      8 N8         -1.4540    3.6924   54.9518 N.am    1  ZINC000277311370   -0.7000
      9 C9         -1.9374    4.1256   53.7707 C.2     1  ZINC000277311370    0.5700
     10 O10        -2.4642    5.2181   53.6936 O.2     1  ZINC000277311370   -0.4900
     11 C11        -1.8265    3.2705   52.5667 C.ar    1  ZINC000277311370    0.1100
     12 N12        -0.6326    3.0275   52.0394 N.ar    1  ZINC000277311370   -0.4300
     13 C13        -0.4906    2.2729   50.9709 C.ar    1  ZINC000277311370    0.1300
     14 Br14        1.2385    1.9658   50.2694 Br      1  ZINC000277311370    0.0200
     15 C15        -1.5916    1.6993   50.3522 C.ar    1  ZINC000277311370   -0.1100
     16 C16        -2.8564    1.9268   50.8694 C.ar    1  ZINC000277311370   -0.0400
     17 C17        -2.9760    2.7225   51.9997 C.ar    1  ZINC000277311370   -0.0900
     18 Br18       -4.6756    3.0697   52.7526 Br      1  ZINC000277311370    0.0300
     19 H19        -0.7818    1.9357   58.2630 H       1  ZINC000277311370    0.0700
     20 H20        -2.3735    2.3825   57.6034 H       1  ZINC000277311370    0.0700
     21 H21        -1.0639    1.8831   56.5064 H       1  ZINC000277311370    0.0600
     22 H22        -1.0749    4.3979   58.2363 H       1  ZINC000277311370    0.1000
     23 H23         0.9030    3.3810   56.1457 H       1  ZINC000277311370    0.0600
     24 H24         0.9945    4.9476   56.9857 H       1  ZINC000277311370    0.0600
     25 H25         1.1851    3.4336   57.9024 H       1  ZINC000277311370    0.0700
     26 H26        -1.0324    2.8210   55.0131 H       1  ZINC000277311370    0.4200
     27 H27        -1.4641    1.0816   49.4756 H       1  ZINC000277311370    0.1600
     28 H28        -3.7292    1.4914   50.4056 H       1  ZINC000277311370    0.1700
@<TRIPOS>BOND
     1     1     2    1
     2     1    19    1
     3     1    20    1
     4     1    21    1
     5     2     3    1
     6     2     4    1
     7     2    22    1
     8     3    23    1
     9     3    24    1
    10     3    25    1
    11     4     5    1
    12     4     6    1
    13     4     8    1
    14     6     7    3
    15     8     9   am
    16     8    26    1
    17     9    10    2
    18     9    11    1
    19    11    17   ar
    20    11    12   ar
    21    12    13   ar
    22    13    14    1
    23    13    15   ar
    24    15    16   ar
    25    15    27    1
    26    16    17   ar
    27    16    28    1
    28    17    18    1
@<TRIPOS>SUBSTRUCTURE
     1 ZINC000277311370        1 TEMP              0 ****  ****    0 ROOT


##########                                Name:    ZINC000364058410
##########                DOCK_Rotatable_Bonds:                   5
##########                         Heavy_Atoms:                  25
##########                    Molecular_Weight:             358.464
##########                DOCK_Rotatable_Bonds:                   5
##########                       Formal_Charge:           0.0100002
##########                     HBond_Acceptors:                   7
##########                        HBond_Donors:                   0
##########                         Heavy_Atoms:                  25
##########                          Grid_Score:          -22.925005
##########                     Grid_vdw_energy:          -22.578136
##########                      Grid_es_energy:           -0.346868
##########           Internal_energy_repulsive:           63.172798

@<TRIPOS>MOLECULE
ZINC000364058410
 47 50 1 0 0
SMALL
USER_CHARGES


@<TRIPOS>ATOM
      1 C1         -9.6526   -0.5686   53.6425 C.3     1  ZINC000364058410   -0.0700
      2 C2        -10.1425   -1.3044   54.8631 C.2     1  ZINC000364058410   -0.2500
      3 C3        -11.2708   -1.0309   55.5580 C.2     1  ZINC000364058410    0.0800
      4 N4        -11.3507   -1.9128   56.5764 N.pl3   1  ZINC000364058410   -0.3600
      5 C5        -12.4167   -1.9771   57.5792 C.3     1  ZINC000364058410    0.1300
      6 C6        -11.9508   -2.5116   58.9456 C.3     1  ZINC000364058410    0.1100
      7 N7        -11.6790   -1.1029   59.2915 N.am    1  ZINC000364058410   -0.6500
      8 C8        -10.8560   -0.4860   60.1624 C.2     1  ZINC000364058410    0.5600
      9 O9        -10.1257   -1.1415   60.8750 O.2     1  ZINC000364058410   -0.5000
     10 C10       -10.8433    1.0183   60.2508 C.3     1  ZINC000364058410    0.1400
     11 H11       -11.7697    1.4166   59.8369 H       1  ZINC000364058410    0.0900
     12 C12       -10.7101    1.4456   61.7160 C.3     1  ZINC000364058410   -0.1200
     13 C13       -10.5578    2.9667   61.7878 C.3     1  ZINC000364058410   -0.1200
     14 C14        -9.2890    3.3898   61.0439 C.3     1  ZINC000364058410   -0.1400
     15 C15        -9.4062    2.9846   59.5712 C.3     1  ZINC000364058410    0.1000
     16 N16        -9.6992    1.5465   59.4953 N.am    1  ZINC000364058410   -0.6000
     17 C17        -8.9301    0.7274   58.7511 C.2     1  ZINC000364058410    0.5900
     18 O18        -9.1832   -0.4618   58.6964 O.2     1  ZINC000364058410   -0.4900
     19 C19        -7.7887    1.2687   58.0075 C.2     1  ZINC000364058410   -0.2600
     20 C20        -7.7109    1.3837   56.6481 C.2     1  ZINC000364058410   -0.0600
     21 C21        -6.5242    1.9263   56.2155 C.2     1  ZINC000364058410   -0.1400
     22 C22        -5.6588    2.2451   57.1851 C.2     1  ZINC000364058410   -0.2400
     23 S23        -6.3036    1.8810   58.7222 S.3     1  ZINC000364058410    0.2100
     24 C24       -12.6705   -0.6410   58.3007 C.3     1  ZINC000364058410    0.0900
     25 N25       -10.2345   -2.7562   56.5049 N.2     1  ZINC000364058410   -0.3000
     26 C26        -9.5142   -2.3945   55.4742 C.2     1  ZINC000364058410    0.0500
     27 H27       -10.0652   -1.0343   52.7476 H       1  ZINC000364058410    0.0600
     28 H28        -9.9740    0.4717   53.6920 H       1  ZINC000364058410    0.0600
     29 H29        -8.5640   -0.6111   53.6052 H       1  ZINC000364058410    0.0600
     30 H30       -11.9804   -0.2471   55.3372 H       1  ZINC000364058410    0.1700
     31 H31       -13.3233   -2.4533   57.2057 H       1  ZINC000364058410    0.1300
     32 H32       -12.7483   -2.9629   59.5360 H       1  ZINC000364058410    0.1100
     33 H33       -11.0558   -3.1316   58.8930 H       1  ZINC000364058410    0.0900
     34 H34       -11.6012    1.1428   62.2657 H       1  ZINC000364058410    0.0800
     35 H35        -9.8324    0.9710   62.1549 H       1  ZINC000364058410    0.0800
     36 H36       -11.4242    3.4406   61.3265 H       1  ZINC000364058410    0.0700
     37 H37       -10.4875    3.2758   62.8307 H       1  ZINC000364058410    0.0800
     38 H38        -9.1687    4.4708   61.1154 H       1  ZINC000364058410    0.0800
     39 H39        -8.4248    2.8969   61.4892 H       1  ZINC000364058410    0.0700
     40 H40       -10.2141    3.5453   59.1012 H       1  ZINC000364058410    0.0800
     41 H41        -8.4671    3.1939   59.0589 H       1  ZINC000364058410    0.0900
     42 H42        -8.5027    1.0785   55.9800 H       1  ZINC000364058410    0.1500
     43 H43        -6.3061    2.0833   55.1694 H       1  ZINC000364058410    0.1500
     44 H44        -4.6841    2.6789   57.0172 H       1  ZINC000364058410    0.1700
     45 H45       -12.3501    0.2326   57.7329 H       1  ZINC000364058410    0.0900
     46 H46       -13.6793   -0.5428   58.7015 H       1  ZINC000364058410    0.1100
     47 H47        -8.5902   -2.8534   55.1549 H       1  ZINC000364058410    0.1800
@<TRIPOS>BOND
     1     1     2    1
     2     1    27    1
     3     1    28    1
     4     1    29    1
     5     2    26    1
     6     2     3    2
     7     3     4    1
     8     3    30    1
     9     4     5    1
    10     4    25    1
    11     5    24    1
    12     5     6    1
    13     5    31    1
    14     6     7    1
    15     6    32    1
    16     6    33    1
    17     7     8   am
    18     7    24    1
    19     8     9    2
    20     8    10    1
    21    10    11    1
    22    10    16    1
    23    10    12    1
    24    12    13    1
    25    12    34    1
    26    12    35    1
    27    13    14    1
    28    13    36    1
    29    13    37    1
    30    14    15    1
    31    14    38    1
    32    14    39    1
    33    15    16    1
    34    15    40    1
    35    15    41    1
    36    16    17   am
    37    17    18    2
    38    17    19    1
    39    19    23    1
    40    19    20    2
    41    20    21    1
    42    20    42    1
    43    21    22    2
    44    21    43    1
    45    22    23    1
    46    22    44    1
    47    24    45    1
    48    24    46    1
    49    25    26    2
    50    26    47    1
@<TRIPOS>SUBSTRUCTURE
     1 ZINC000364058410        1 TEMP              0 ****  ****    0 ROOT


##########                                Name:    ZINC001091652821
##########                DOCK_Rotatable_Bonds:                   4
##########                         Heavy_Atoms:                  24
##########                    Molecular_Weight:             345.465
##########                DOCK_Rotatable_Bonds:                   4
##########                       Formal_Charge:          -0.0199997
##########                     HBond_Acceptors:                   6
##########                        HBond_Donors:                   0
##########                         Heavy_Atoms:                  24
##########                          Grid_Score:          -22.910301
##########                     Grid_vdw_energy:          -22.293646
##########                      Grid_es_energy:           -0.616656
##########           Internal_energy_repulsive:            4.265867

@<TRIPOS>MOLECULE
ZINC001091652821
 47 50 1 0 0
SMALL
USER_CHARGES


@<TRIPOS>ATOM
      1 C1        -16.1493    2.9738   59.2477 C.3     1  ZINC001091652821   -0.1000
      2 C2        -15.8181    1.5780   58.7860 C.2     1  ZINC001091652821   -0.1200
      3 C3        -16.5241    0.9483   57.8397 C.2     1  ZINC001091652821   -0.2400
      4 S4        -15.8966   -0.6109   57.5462 S.3     1  ZINC001091652821    0.2100
      5 C5        -14.6383   -0.3842   58.7532 C.2     1  ZINC001091652821   -0.2700
      6 C6        -13.6137   -1.3703   59.1092 C.2     1  ZINC001091652821    0.6100
      7 O7        -13.5915   -1.8477   60.2285 O.2     1  ZINC001091652821   -0.5200
      8 N8        -12.6963   -1.7481   58.1970 N.am    1  ZINC001091652821   -0.6200
      9 C9        -12.5822   -1.2643   56.8114 C.3     1  ZINC001091652821    0.0900
     10 C10       -11.0865   -1.3077   56.4581 C.3     1  ZINC001091652821   -0.0900
     11 H11       -10.9176   -1.6398   55.4337 H       1  ZINC001091652821    0.1100
     12 C12       -10.4641    0.0782   56.7278 C.3     1  ZINC001091652821    0.0400
     13 N13        -9.1762   -0.2131   57.4080 N.3     1  ZINC001091652821   -0.5000
     14 C14        -8.7006    0.9569   58.1582 C.3     1  ZINC001091652821    0.1200
     15 C15        -7.5738    1.6136   57.4033 C.2     1  ZINC001091652821    0.0000
     16 C16        -7.4351    1.6597   56.0680 C.2     1  ZINC001091652821   -0.0800
     17 O17        -6.2985    2.3361   55.8105 O.3     1  ZINC001091652821   -0.2000
     18 C18        -5.7605    2.6926   56.9844 C.2     1  ZINC001091652821    0.1900
     19 C19        -4.4807    3.4679   57.1639 C.3     1  ZINC001091652821   -0.0600
     20 N20        -6.5288    2.2642   57.9448 N.2     1  ZINC001091652821   -0.4700
     21 C21        -9.4938   -1.3390   58.3231 C.3     1  ZINC001091652821    0.0400
     22 C22       -10.4493   -2.2670   57.4963 C.3     1  ZINC001091652821   -0.0700
     23 C23        -9.7013   -3.4397   56.8590 C.3     1  ZINC001091652821   -0.1300
     24 C24       -11.6088   -2.7204   58.3937 C.3     1  ZINC001091652821    0.1200
     25 C25       -14.7649    0.8608   59.3022 C.2     1  ZINC001091652821   -0.0500
     26 H26       -15.6110    3.6966   58.6346 H       1  ZINC001091652821    0.0700
     27 H27       -17.2218    3.1433   59.1518 H       1  ZINC001091652821    0.0700
     28 H28       -15.8547    3.0911   60.2905 H       1  ZINC001091652821    0.0700
     29 H29       -17.3776    1.3705   57.3299 H       1  ZINC001091652821    0.1700
     30 H30       -13.1441   -1.9145   56.1408 H       1  ZINC001091652821    0.0800
     31 H31       -12.9539   -0.2421   56.7404 H       1  ZINC001091652821    0.0800
     32 H32       -10.2876    0.6045   55.7897 H       1  ZINC001091652821    0.0800
     33 H33       -11.1124    0.6658   57.3778 H       1  ZINC001091652821    0.0500
     34 H34        -9.5184    1.6670   58.2806 H       1  ZINC001091652821    0.0500
     35 H35        -8.3450    0.6398   59.1386 H       1  ZINC001091652821    0.1000
     36 H36        -8.1079    1.2342   55.3381 H       1  ZINC001091652821    0.2100
     37 H37        -4.0545    3.6969   56.1871 H       1  ZINC001091652821    0.0900
     38 H38        -4.6897    4.3962   57.6956 H       1  ZINC001091652821    0.1000
     39 H39        -3.7721    2.8716   57.7387 H       1  ZINC001091652821    0.1000
     40 H40        -8.5860   -1.8813   58.5875 H       1  ZINC001091652821    0.0900
     41 H41        -9.9922   -0.9708   59.2198 H       1  ZINC001091652821    0.0500
     42 H42        -9.2505   -4.0510   57.6408 H       1  ZINC001091652821    0.0600
     43 H43       -10.3997   -4.0454   56.2816 H       1  ZINC001091652821    0.0600
     44 H44        -8.9208   -3.0582   56.2007 H       1  ZINC001091652821    0.0700
     45 H45       -11.3006   -2.7056   59.4392 H       1  ZINC001091652821    0.0900
     46 H46       -11.9297   -3.7233   58.1120 H       1  ZINC001091652821    0.0800
     47 H47       -14.1080    1.2405   60.0706 H       1  ZINC001091652821    0.1500
@<TRIPOS>BOND
     1     1     2    1
     2     1    26    1
     3     1    27    1
     4     1    28    1
     5     2    25    1
     6     2     3    2
     7     3     4    1
     8     3    29    1
     9     4     5    1
    10     5     6    1
    11     5    25    2
    12     6     7    2
    13     6     8   am
    14     8    24    1
    15     8     9    1
    16     9    10    1
    17     9    30    1
    18     9    31    1
    19    10    11    1
    20    10    22    1
    21    10    12    1
    22    12    13    1
    23    12    32    1
    24    12    33    1
    25    13    14    1
    26    13    21    1
    27    14    15    1
    28    14    34    1
    29    14    35    1
    30    15    20    1
    31    15    16    2
    32    16    17    1
    33    16    36    1
    34    17    18    1
    35    18    19    1
    36    18    20    2
    37    19    37    1
    38    19    38    1
    39    19    39    1
    40    21    22    1
    41    21    40    1
    42    21    41    1
    43    22    23    1
    44    22    24    1
    45    23    42    1
    46    23    43    1
    47    23    44    1
    48    24    45    1
    49    24    46    1
    50    25    47    1
@<TRIPOS>SUBSTRUCTURE
     1 ZINC001091652821        1 TEMP              0 ****  ****    0 ROOT


##########                                Name:    ZINC001016082614
##########                DOCK_Rotatable_Bonds:                   6
##########                         Heavy_Atoms:                  25
##########                    Molecular_Weight:             348.402
##########                DOCK_Rotatable_Bonds:                   6
##########                       Formal_Charge:         -0.00999998
##########                     HBond_Acceptors:                   8
##########                        HBond_Donors:                   1
##########                         Heavy_Atoms:                  25
##########                          Grid_Score:          -22.814924
##########                     Grid_vdw_energy:          -22.097795
##########                      Grid_es_energy:           -0.717128
##########           Internal_energy_repulsive:           52.790489

@<TRIPOS>MOLECULE
ZINC001016082614
 49 51 1 0 0
SMALL
USER_CHARGES


@<TRIPOS>ATOM
      1 C1        -13.5636   -0.5416   49.5031 C.3     1  ZINC001016082614   -0.1700
      2 C2        -13.8386    0.5955   50.4891 C.3     1  ZINC001016082614    0.1000
      3 N3        -13.6254    0.1176   51.8575 N.am    1  ZINC001016082614   -0.6100
      4 C4        -14.6072   -0.5451   52.5005 C.2     1  ZINC001016082614    0.6100
      5 O5        -14.4301   -0.9422   53.6369 O.2     1  ZINC001016082614   -0.5100
      6 C6        -15.8895   -0.7879   51.8300 C.2     1  ZINC001016082614   -0.1100
      7 C7        -16.9713   -1.4329   52.3520 C.2     1  ZINC001016082614    0.0600
      8 N8        -17.9261   -1.4363   51.4161 N.2     1  ZINC001016082614   -0.4900
      9 C9        -17.4798   -0.8259   50.3512 C.2     1  ZINC001016082614    0.2000
     10 O10       -16.2296   -0.4095   50.5759 O.3     1  ZINC001016082614   -0.1900
     11 C11       -12.3450    0.3599   52.5269 C.3     1  ZINC001016082614    0.1600
     12 H12       -11.7323    0.9896   51.8818 H       1  ZINC001016082614    0.0800
     13 C13       -12.6128    1.1132   53.8264 C.3     1  ZINC001016082614   -0.1300
     14 C14       -11.3928    1.9197   54.1974 C.3     1  ZINC001016082614   -0.1300
     15 C15       -10.4761    1.0976   55.1214 C.3     1  ZINC001016082614    0.1000
     16 N16       -10.3849   -0.3146   54.7014 N.am    1  ZINC001016082614   -0.6000
     17 C17       -10.4257   -1.2738   55.6471 C.2     1  ZINC001016082614    0.5000
     18 O18       -10.3527   -2.4420   55.3295 O.2     1  ZINC001016082614   -0.5200
     19 C19       -10.5620   -0.8950   57.0994 C.3     1  ZINC001016082614    0.1100
     20 H20        -9.9993    0.0155   57.3055 H       1  ZINC001016082614    0.1100
     21 C21       -10.0648   -2.0464   58.0012 C.3     1  ZINC001016082614   -0.1200
     22 C22       -11.3768   -2.8144   58.2838 C.3     1  ZINC001016082614   -0.1600
     23 C23       -12.4611   -1.7746   58.1063 C.2     1  ZINC001016082614    0.5300
     24 O24       -13.6018   -1.8858   58.5029 O.2     1  ZINC001016082614   -0.5300
     25 N25       -11.9760   -0.7072   57.4447 N.am    1  ZINC001016082614   -0.7100
     26 C26       -10.2540   -0.7110   53.3173 C.3     1  ZINC001016082614    0.1300
     27 C27       -11.6608   -0.9296   52.7073 C.3     1  ZINC001016082614   -0.1600
     28 H28       -13.7222   -0.1860   48.4850 H       1  ZINC001016082614    0.0700
     29 H29       -12.5325   -0.8774   49.6142 H       1  ZINC001016082614    0.0500
     30 H30       -14.2400   -1.3714   49.7076 H       1  ZINC001016082614    0.0600
     31 H31       -13.1620    1.4254   50.2846 H       1  ZINC001016082614    0.0900
     32 H32       -14.8695    0.9314   50.3780 H       1  ZINC001016082614    0.0900
     33 H33       -17.0436   -1.8628   53.3401 H       1  ZINC001016082614    0.2000
     34 H34       -18.0341   -0.6771   49.4363 H       1  ZINC001016082614    0.2600
     35 H35       -13.4631    1.7815   53.6908 H       1  ZINC001016082614    0.0700
     36 H36       -12.8330    0.4005   54.6211 H       1  ZINC001016082614    0.0800
     37 H37       -10.8474    2.1873   53.2924 H       1  ZINC001016082614    0.0700
     38 H38       -11.7033    2.8289   54.7122 H       1  ZINC001016082614    0.0800
     39 H39        -9.4779    1.5353   55.1105 H       1  ZINC001016082614    0.0700
     40 H40       -10.8682    1.1399   56.1377 H       1  ZINC001016082614    0.0800
     41 H41        -9.3504   -2.6763   57.4712 H       1  ZINC001016082614    0.1000
     42 H42        -9.6324   -1.6601   58.9242 H       1  ZINC001016082614    0.1000
     43 H43       -11.5055   -3.6260   57.5677 H       1  ZINC001016082614    0.1100
     44 H44       -11.3811   -3.1998   59.3034 H       1  ZINC001016082614    0.1100
     45 H45       -12.4946    0.0826   57.2251 H       1  ZINC001016082614    0.4200
     46 H46        -9.7338    0.0706   52.7635 H       1  ZINC001016082614    0.0800
     47 H47        -9.6840   -1.6382   53.2577 H       1  ZINC001016082614    0.0900
     48 H48       -12.2478   -1.5632   53.3721 H       1  ZINC001016082614    0.0900
     49 H49       -11.5620   -1.4207   51.7392 H       1  ZINC001016082614    0.0700
@<TRIPOS>BOND
     1     1     2    1
     2     1    28    1
     3     1    29    1
     4     1    30    1
     5     2     3    1
     6     2    31    1
     7     2    32    1
     8     3     4   am
     9     3    11    1
    10     4     5    2
    11     4     6    1
    12     6    10    1
    13     6     7    2
    14     7     8    1
    15     7    33    1
    16     8     9    2
    17     9    10    1
    18     9    34    1
    19    11    12    1
    20    11    27    1
    21    11    13    1
    22    13    14    1
    23    13    35    1
    24    13    36    1
    25    14    15    1
    26    14    37    1
    27    14    38    1
    28    15    16    1
    29    15    39    1
    30    15    40    1
    31    16    17   am
    32    16    26    1
    33    17    18    2
    34    17    19    1
    35    19    20    1
    36    19    25    1
    37    19    21    1
    38    21    22    1
    39    21    41    1
    40    21    42    1
    41    22    23    1
    42    22    43    1
    43    22    44    1
    44    23    24    2
    45    23    25   am
    46    25    45    1
    47    26    27    1
    48    26    46    1
    49    26    47    1
    50    27    48    1
    51    27    49    1
@<TRIPOS>SUBSTRUCTURE
     1 ZINC001016082614        1 TEMP              0 ****  ****    0 ROOT


##########                                Name:    ZINC000845755710
##########                DOCK_Rotatable_Bonds:                   3
##########                         Heavy_Atoms:                  24
##########                    Molecular_Weight:             349.814
##########                DOCK_Rotatable_Bonds:                   3
##########                       Formal_Charge:         -0.00999974
##########                     HBond_Acceptors:                   6
##########                        HBond_Donors:                   0
##########                         Heavy_Atoms:                  24
##########                          Grid_Score:          -22.668213
##########                     Grid_vdw_energy:          -22.864805
##########                      Grid_es_energy:            0.196591
##########           Internal_energy_repulsive:           17.244337

@<TRIPOS>MOLECULE
ZINC000845755710
 44 47 1 0 0
SMALL
USER_CHARGES


@<TRIPOS>ATOM
      1 C1        -14.4629    2.0794   51.7580 C.3     1  ZINC000845755710   -0.1700
      2 C2        -13.8562    0.6860   51.5807 C.3     1  ZINC000845755710    0.2600
      3 C3        -12.6300    0.5406   52.4841 C.3     1  ZINC000845755710   -0.0900
      4 C4        -13.0448    0.7437   53.9431 C.3     1  ZINC000845755710   -0.1300
      5 C5        -11.8089    0.6317   54.8414 C.3     1  ZINC000845755710    0.1100
      6 N6        -11.1459   -0.6522   54.5757 N.am    1  ZINC000845755710   -0.6000
      7 C7        -10.8740   -1.5060   55.5824 C.2     1  ZINC000845755710    0.5900
      8 O8        -10.3245   -2.5661   55.3492 O.2     1  ZINC000845755710   -0.5200
      9 C9        -11.2415   -1.1562   56.9628 C.2     1  ZINC000845755710   -0.2200
     10 C10       -10.6006   -0.2844   57.7877 C.2     1  ZINC000845755710    0.0600
     11 O11       -11.2303   -0.2277   58.9669 O.3     1  ZINC000845755710   -0.1800
     12 C12       -12.3046   -1.0439   58.9898 C.ar    1  ZINC000845755710    0.0500
     13 C13       -13.2570   -1.3325   59.9592 C.ar    1  ZINC000845755710   -0.0900
     14 C14       -14.2651   -2.2332   59.6883 C.ar    1  ZINC000845755710   -0.0800
     15 C15       -14.3407   -2.8592   58.4524 C.ar    1  ZINC000845755710   -0.0400
     16 Cl16      -15.6178   -3.9907   58.1318 Cl      1  ZINC000845755710   -0.0600
     17 C17       -13.4038   -2.5846   57.4773 C.ar    1  ZINC000845755710   -0.0500
     18 C18       -12.3863   -1.6734   57.7390 C.ar    1  ZINC000845755710   -0.0900
     19 C19       -10.7854   -0.9879   53.1915 C.3     1  ZINC000845755710    0.1000
     20 C20       -12.0327   -0.8578   52.3117 C.3     1  ZINC000845755710   -0.1300
     21 O21       -14.8300   -0.3126   51.9286 O.3     1  ZINC000845755710   -0.3700
     22 C22       -15.4359   -0.6932   50.6698 C.3     1  ZINC000845755710    0.0100
     23 C23       -14.2274   -0.6186   49.7036 C.3     1  ZINC000845755710    0.0200
     24 O24       -13.4714    0.4988   50.2123 O.3     1  ZINC000845755710   -0.3800
     25 H25       -15.3329    2.1821   51.1093 H       1  ZINC000845755710    0.0600
     26 H26       -14.7660    2.2142   52.7963 H       1  ZINC000845755710    0.0800
     27 H27       -13.7222    2.8344   51.4946 H       1  ZINC000845755710    0.0800
     28 H28       -11.8866    1.2893   52.2105 H       1  ZINC000845755710    0.0900
     29 H29       -13.4915    1.7310   54.0603 H       1  ZINC000845755710    0.0800
     30 H30       -13.7698   -0.0199   54.2249 H       1  ZINC000845755710    0.0800
     31 H31       -11.1226    1.4496   54.6223 H       1  ZINC000845755710    0.0700
     32 H32       -12.1122    0.6767   55.8874 H       1  ZINC000845755710    0.1000
     33 H33        -9.7154    0.2778   57.5293 H       1  ZINC000845755710    0.2200
     34 H34       -13.2075   -0.8516   60.9249 H       1  ZINC000845755710    0.1500
     35 H35       -15.0029   -2.4538   60.4455 H       1  ZINC000845755710    0.1500
     36 H36       -13.4624   -3.0718   56.5152 H       1  ZINC000845755710    0.1400
     37 H37       -10.0156   -0.3021   52.8377 H       1  ZINC000845755710    0.0800
     38 H38       -10.4132   -2.0115   53.1488 H       1  ZINC000845755710    0.0900
     39 H39       -12.7672   -1.6064   52.6088 H       1  ZINC000845755710    0.0700
     40 H40       -11.7590   -1.0103   51.2677 H       1  ZINC000845755710    0.0800
     41 H41       -15.8341   -1.7067   50.7192 H       1  ZINC000845755710    0.1100
     42 H42       -16.2116    0.0156   50.3800 H       1  ZINC000845755710    0.0800
     43 H43       -13.6393   -1.5351   49.7508 H       1  ZINC000845755710    0.0800
     44 H44       -14.5608   -0.4258   48.6839 H       1  ZINC000845755710    0.1000
@<TRIPOS>BOND
     1     1     2    1
     2     1    25    1
     3     1    26    1
     4     1    27    1
     5     2    24    1
     6     2     3    1
     7     2    21    1
     8     3    20    1
     9     3     4    1
    10     3    28    1
    11     4     5    1
    12     4    29    1
    13     4    30    1
    14     5     6    1
    15     5    31    1
    16     5    32    1
    17     6     7   am
    18     6    19    1
    19     7     8    2
    20     7     9    1
    21     9    18    1
    22     9    10    2
    23    10    11    1
    24    10    33    1
    25    11    12    1
    26    12    18   ar
    27    12    13   ar
    28    13    14   ar
    29    13    34    1
    30    14    15   ar
    31    14    35    1
    32    15    16    1
    33    15    17   ar
    34    17    18   ar
    35    17    36    1
    36    19    20    1
    37    19    37    1
    38    19    38    1
    39    20    39    1
    40    20    40    1
    41    21    22    1
    42    22    23    1
    43    22    41    1
    44    22    42    1
    45    23    24    1
    46    23    43    1
    47    23    44    1
@<TRIPOS>SUBSTRUCTURE
     1 ZINC000845755710        1 TEMP              0 ****  ****    0 ROOT


##########                                Name:    ZINC000950547210
##########                DOCK_Rotatable_Bonds:                   5
##########                         Heavy_Atoms:                  25
##########                    Molecular_Weight:              346.47
##########                DOCK_Rotatable_Bonds:                   5
##########                       Formal_Charge:         5.58794e-07
##########                     HBond_Acceptors:                   5
##########                        HBond_Donors:                   1
##########                         Heavy_Atoms:                  25
##########                          Grid_Score:          -22.578890
##########                     Grid_vdw_energy:          -22.109325
##########                      Grid_es_energy:           -0.469564
##########           Internal_energy_repulsive:           20.048529

@<TRIPOS>MOLECULE
ZINC000950547210
 55 58 1 0 0
SMALL
USER_CHARGES


@<TRIPOS>ATOM
      1 O1        -10.0135    2.6668   62.8611 O.2     1  ZINC000950547210   -0.5200
      2 C2         -9.4486    1.6802   63.2836 C.2     1  ZINC000950547210    0.5200
      3 N3         -8.9980    0.7428   62.4267 N.am    1  ZINC000950547210   -0.7300
      4 C4         -9.1956    0.9126   60.9850 C.3     1  ZINC000950547210    0.1300
      5 H5        -10.1095    1.4795   60.8074 H       1  ZINC000950547210    0.0900
      6 C6         -8.0034    1.6666   60.3913 C.3     1  ZINC000950547210   -0.1300
      7 C7         -8.2242    1.8733   58.8912 C.3     1  ZINC000950547210   -0.1300
      8 C8         -8.3259    0.5093   58.2013 C.3     1  ZINC000950547210    0.1000
      9 N9         -9.3752   -0.2781   58.8627 N.am    1  ZINC000950547210   -0.6100
     10 C10       -10.3798   -0.8216   58.1473 C.2     1  ZINC000950547210    0.5600
     11 O11       -11.2425   -1.4713   58.7066 O.2     1  ZINC000950547210   -0.5200
     12 C12       -10.4330   -0.6289   56.6899 C.2     1  ZINC000950547210   -0.1400
     13 C13        -9.6973   -1.4068   55.9165 C.2     1  ZINC000950547210   -0.1500
     14 C14        -9.6812   -1.2769   54.4194 C.3     1  ZINC000950547210    0.0900
     15 O15       -10.7953   -0.4962   53.9825 O.3     1  ZINC000950547210   -0.3700
     16 C16       -10.9210    0.7462   54.6848 C.3     1  ZINC000950547210    0.0600
     17 C17       -11.3279    0.4432   56.1311 C.3     1  ZINC000950547210   -0.1100
     18 C18        -9.3091   -0.4622   60.3190 C.3     1  ZINC000950547210    0.1000
     19 C19        -9.2453    1.5056   64.7666 C.3     1  ZINC000950547210   -0.1000
     20 H20       -10.1367    1.0570   65.2053 H       1  ZINC000950547210    0.1000
     21 C21        -8.9913    2.8699   65.4107 C.3     1  ZINC000950547210   -0.1100
     22 C22        -7.6184    2.8675   66.0861 C.3     1  ZINC000950547210   -0.0900
     23 C23        -7.5814    1.7806   67.1622 C.3     1  ZINC000950547210   -0.1100
     24 C24        -7.8354    0.4163   66.5181 C.3     1  ZINC000950547210   -0.1100
     25 C25        -8.0417    0.5935   65.0125 C.3     1  ZINC000950547210   -0.0600
     26 C26        -6.7905    1.2231   64.3968 C.3     1  ZINC000950547210   -0.1300
     27 C27        -6.5366    2.5876   65.0410 C.3     1  ZINC000950547210   -0.1200
     28 H28        -8.5428   -0.0444   62.7644 H       1  ZINC000950547210    0.4000
     29 H29        -7.9061    2.6355   60.8810 H       1  ZINC000950547210    0.0800
     30 H30        -7.0932    1.0877   60.5480 H       1  ZINC000950547210    0.0700
     31 H31        -9.1474    2.4308   58.7327 H       1  ZINC000950547210    0.0700
     32 H32        -7.3858    2.4307   58.4734 H       1  ZINC000950547210    0.0900
     33 H33        -8.5813    0.6492   57.1509 H       1  ZINC000950547210    0.0900
     34 H34        -7.3722   -0.0126   58.2811 H       1  ZINC000950547210    0.0700
     35 H35        -9.0828   -2.1656   56.3780 H       1  ZINC000950547210    0.1200
     36 H36        -8.7558   -0.7921   54.1086 H       1  ZINC000950547210    0.0700
     37 H37        -9.7361   -2.2684   53.9701 H       1  ZINC000950547210    0.1100
     38 H38        -9.9667    1.2727   54.6715 H       1  ZINC000950547210    0.0600
     39 H39       -11.6876    1.3591   54.2105 H       1  ZINC000950547210    0.1000
     40 H40       -12.3646    0.1073   56.1538 H       1  ZINC000950547210    0.0900
     41 H41       -11.2257    1.3457   56.7336 H       1  ZINC000950547210    0.0900
     42 H42        -8.4357   -1.0632   60.5720 H       1  ZINC000950547210    0.0700
     43 H43       -10.2129   -0.9635   60.6653 H       1  ZINC000950547210    0.1000
     44 H44        -9.0177    3.6443   64.6441 H       1  ZINC000950547210    0.0700
     45 H45        -9.7620    3.0694   66.1553 H       1  ZINC000950547210    0.0700
     46 H46        -7.4375    3.8395   66.5449 H       1  ZINC000950547210    0.0700
     47 H47        -6.6033    1.7788   67.6434 H       1  ZINC000950547210    0.0600
     48 H48        -8.3521    1.9800   67.9068 H       1  ZINC000950547210    0.0600
     49 H49        -6.9778   -0.2335   66.6933 H       1  ZINC000950547210    0.0700
     50 H50        -8.7267   -0.0323   66.9567 H       1  ZINC000950547210    0.0600
     51 H51        -8.2227   -0.3784   64.5537 H       1  ZINC000950547210    0.0800
     52 H52        -5.9330    0.5734   64.5721 H       1  ZINC000950547210    0.0600
     53 H53        -6.9375    1.3495   63.3243 H       1  ZINC000950547210    0.0900
     54 H54        -6.5629    3.3619   64.2743 H       1  ZINC000950547210    0.0600
     55 H55        -5.5585    2.5858   65.5222 H       1  ZINC000950547210    0.0600
@<TRIPOS>BOND
     1     1     2    2
     2     2     3   am
     3     2    19    1
     4     3     4    1
     5     3    28    1
     6     4     5    1
     7     4    18    1
     8     4     6    1
     9     6     7    1
    10     6    29    1
    11     6    30    1
    12     7     8    1
    13     7    31    1
    14     7    32    1
    15     8     9    1
    16     8    33    1
    17     8    34    1
    18     9    10   am
    19     9    18    1
    20    10    11    2
    21    10    12    1
    22    12    17    1
    23    12    13    2
    24    13    14    1
    25    13    35    1
    26    14    15    1
    27    14    36    1
    28    14    37    1
    29    15    16    1
    30    16    17    1
    31    16    38    1
    32    16    39    1
    33    17    40    1
    34    17    41    1
    35    18    42    1
    36    18    43    1
    37    19    20    1
    38    19    25    1
    39    19    21    1
    40    21    22    1
    41    21    44    1
    42    21    45    1
    43    22    27    1
    44    22    23    1
    45    22    46    1
    46    23    24    1
    47    23    47    1
    48    23    48    1
    49    24    25    1
    50    24    49    1
    51    24    50    1
    52    25    26    1
    53    25    51    1
    54    26    27    1
    55    26    52    1
    56    26    53    1
    57    27    54    1
    58    27    55    1
@<TRIPOS>SUBSTRUCTURE
     1 ZINC000950547210        1 TEMP              0 ****  ****    0 ROOT


##########                                Name:    ZINC001010141213
##########                DOCK_Rotatable_Bonds:                   4
##########                         Heavy_Atoms:                  24
##########                    Molecular_Weight:             330.346
##########                DOCK_Rotatable_Bonds:                   4
##########                       Formal_Charge:          -0.0100003
##########                     HBond_Acceptors:                   9
##########                        HBond_Donors:                   1
##########                         Heavy_Atoms:                  24
##########                          Grid_Score:          -22.529305
##########                     Grid_vdw_energy:          -21.605234
##########                      Grid_es_energy:           -0.924069
##########           Internal_energy_repulsive:           17.265560

@<TRIPOS>MOLECULE
ZINC001010141213
 42 44 1 0 0
SMALL
USER_CHARGES


@<TRIPOS>ATOM
      1 C1         -6.9076    2.4386   59.8724 C.3     1  ZINC001010141213   -0.0800
      2 C2         -7.5251    1.1966   59.2833 C.2     1  ZINC001010141213   -0.1500
      3 C3         -8.4246    1.1235   58.2340 C.2     1  ZINC001010141213   -0.0400
      4 C4         -8.9757    2.2493   57.4629 C.2     1  ZINC001010141213    0.6000
      5 O5        -10.1642    2.5012   57.5193 O.2     1  ZINC001010141213   -0.5100
      6 N6         -8.1633    3.0014   56.6942 N.am    1  ZINC001010141213   -0.6100
      7 C7         -6.7262    2.7050   56.6117 C.3     1  ZINC001010141213    0.0900
      8 C8         -6.3490    2.5152   55.1372 C.3     1  ZINC001010141213    0.0700
      9 N9         -6.8843    3.6460   54.3662 N.am    1  ZINC001010141213   -0.6000
     10 C10        -6.0721    4.3974   53.5968 C.2     1  ZINC001010141213    0.5900
     11 O11        -6.5264    5.3302   52.9636 O.2     1  ZINC001010141213   -0.5200
     12 C12        -4.6280    4.0870   53.5228 C.2     1  ZINC001010141213    0.0300
     13 N13        -3.8150    4.5267   54.4567 N.2     1  ZINC001010141213   -0.1800
     14 N14        -2.5543    4.2845   54.4377 N.am    1  ZINC001010141213   -0.4400
     15 C15        -1.9857    3.5616   53.4549 C.2     1  ZINC001010141213    0.4800
     16 O16        -0.7847    3.3484   53.4654 O.2     1  ZINC001010141213   -0.5100
     17 C17        -2.7894    3.0512   52.4112 C.2     1  ZINC001010141213   -0.1800
     18 C18        -4.1269    3.3123   52.4490 C.2     1  ZINC001010141213   -0.0400
     19 C19        -8.3214    3.9424   54.4488 C.3     1  ZINC001010141213    0.1000
     20 C20        -8.6996    4.1287   55.9188 C.3     1  ZINC001010141213    0.1000
     21 N21        -8.6984   -0.2031   58.0574 N.pl3   1  ZINC001010141213   -0.2700
     22 C22        -9.6077   -0.7505   57.0477 C.3     1  ZINC001010141213    0.0900
     23 N23        -8.0363   -0.8974   58.9115 N.2     1  ZINC001010141213   -0.2800
     24 C24        -7.3066   -0.1258   59.6761 C.2     1  ZINC001010141213    0.0100
     25 H25        -5.9807    2.6680   59.3468 H       1  ZINC001010141213    0.0700
     26 H26        -7.6005    3.2735   59.7680 H       1  ZINC001010141213    0.0600
     27 H27        -6.6950    2.2729   60.9285 H       1  ZINC001010141213    0.0700
     28 H28        -6.1569    3.5345   57.0310 H       1  ZINC001010141213    0.0800
     29 H29        -6.5087    1.7917   57.1653 H       1  ZINC001010141213    0.1000
     30 H30        -5.2638    2.4859   55.0381 H       1  ZINC001010141213    0.1400
     31 H31        -6.7777    1.5841   54.7667 H       1  ZINC001010141213    0.0800
     32 H32        -1.9963    4.6321   55.1510 H       1  ZINC001010141213    0.4500
     33 H33        -2.3583    2.4683   51.6107 H       1  ZINC001010141213    0.1700
     34 H34        -4.7854    2.9450   51.6758 H       1  ZINC001010141213    0.1700
     35 H35        -8.5390    4.8557   53.8950 H       1  ZINC001010141213    0.1100
     36 H36        -8.8907    3.1129   54.0293 H       1  ZINC001010141213    0.0800
     37 H37        -9.7849    4.1578   56.0164 H       1  ZINC001010141213    0.1100
     38 H38        -8.2712    5.0590   56.2917 H       1  ZINC001010141213    0.0800
     39 H39        -9.0382   -1.0403   56.1646 H       1  ZINC001010141213    0.0900
     40 H40       -10.1180   -1.6239   57.4537 H       1  ZINC001010141213    0.1000
     41 H41       -10.3436    0.0054   56.7735 H       1  ZINC001010141213    0.0900
     42 H42        -6.6562   -0.4529   60.4738 H       1  ZINC001010141213    0.1900
@<TRIPOS>BOND
     1     1     2    1
     2     1    25    1
     3     1    26    1
     4     1    27    1
     5     2    24    1
     6     2     3    2
     7     3     4    1
     8     3    21    1
     9     4     5    2
    10     4     6   am
    11     6    20    1
    12     6     7    1
    13     7     8    1
    14     7    28    1
    15     7    29    1
    16     8     9    1
    17     8    30    1
    18     8    31    1
    19     9    10   am
    20     9    19    1
    21    10    11    2
    22    10    12    1
    23    12    18    1
    24    12    13    2
    25    13    14    1
    26    14    15   am
    27    14    32    1
    28    15    16    2
    29    15    17    1
    30    17    18    2
    31    17    33    1
    32    18    34    1
    33    19    20    1
    34    19    35    1
    35    19    36    1
    36    20    37    1
    37    20    38    1
    38    21    22    1
    39    21    23    1
    40    22    39    1
    41    22    40    1
    42    22    41    1
    43    23    24    2
    44    24    42    1
@<TRIPOS>SUBSTRUCTURE
     1 ZINC001010141213        1 TEMP              0 ****  ****    0 ROOT


##########                                Name:    ZINC000540473851
##########                DOCK_Rotatable_Bonds:                   5
##########                         Heavy_Atoms:                  29
##########                    Molecular_Weight:             411.503
##########                DOCK_Rotatable_Bonds:                   5
##########                       Formal_Charge:           0.0200001
##########                     HBond_Acceptors:                   8
##########                        HBond_Donors:                   0
##########                         Heavy_Atoms:                  29
##########                          Grid_Score:          -22.358381
##########                     Grid_vdw_energy:          -24.106518
##########                      Grid_es_energy:            1.748137
##########           Internal_energy_repulsive:           25.404545

@<TRIPOS>MOLECULE
ZINC000540473851
 51 54 1 0 0
SMALL
USER_CHARGES


@<TRIPOS>ATOM
      1 C1         -7.8736    5.0116   61.5922 C.3     1  ZINC000540473851   -0.0800
      2 C2         -8.2814    3.6317   62.0401 C.2     1  ZINC000540473851    0.1500
      3 C3         -9.0177    2.7814   61.2588 C.2     1  ZINC000540473851   -0.3100
      4 C4         -9.5142    3.0602   59.9058 C.2     1  ZINC000540473851    0.6000
      5 O5        -10.6095    3.5673   59.7522 O.2     1  ZINC000540473851   -0.5100
      6 N6         -8.7568    2.7544   58.8338 N.am    1  ZINC000540473851   -0.6100
      7 C7         -9.2324    3.0307   57.4698 C.3     1  ZINC000540473851    0.1000
      8 C8         -8.1425    3.8060   56.7219 C.3     1  ZINC000540473851    0.0400
      9 N9         -6.8771    3.0638   56.8000 N.3     1  ZINC000540473851   -0.5300
     10 C10        -5.8497    3.6843   55.9531 C.3     1  ZINC000540473851    0.1200
     11 H11        -4.8703    3.5499   56.4124 H       1  ZINC000540473851    0.0500
     12 C12        -6.1436    5.1787   55.8069 C.3     1  ZINC000540473851   -0.1400
     13 C13        -5.8602    3.0350   54.5932 C.ar    1  ZINC000540473851   -0.0500
     14 C14        -6.9252    2.2388   54.2161 C.ar    1  ZINC000540473851   -0.1000
     15 C15        -6.9362    1.6423   52.9688 C.ar    1  ZINC000540473851   -0.0900
     16 C16        -5.8823    1.8416   52.0977 C.ar    1  ZINC000540473851   -0.1500
     17 C17        -4.8149    2.6396   52.4743 C.ar    1  ZINC000540473851    0.1000
     18 F18        -3.7839    2.8352   51.6235 F       1  ZINC000540473851   -0.1400
     19 C19        -4.8075    3.2405   53.7214 C.ar    1  ZINC000540473851   -0.1500
     20 C20        -6.4135    2.9458   58.1890 C.3     1  ZINC000540473851    0.0400
     21 C21        -7.4300    2.1410   58.9972 C.3     1  ZINC000540473851    0.1200
     22 S22        -9.2619    1.2925   62.1690 S.3     1  ZINC000540473851    0.2800
     23 C23        -8.3743    1.9350   63.4809 C.2     1  ZINC000540473851    0.0800
     24 C24        -8.1088    1.2214   64.7495 C.ar    1  ZINC000540473851    0.3800
     25 N25        -7.4553    1.8470   65.7201 N.ar    1  ZINC000540473851   -0.5100
     26 C26        -7.2020    1.2381   66.8651 C.ar    1  ZINC000540473851    0.1600
     27 C27        -7.6283   -0.0700   67.0450 C.ar    1  ZINC000540473851   -0.2100
     28 C28        -8.3091   -0.6944   66.0097 C.ar    1  ZINC000540473851    0.1500
     29 N29        -8.5346   -0.0272   64.8917 N.ar    1  ZINC000540473851   -0.4700
     30 N30        -7.9593    3.1386   63.2052 N.2     1  ZINC000540473851   -0.4300
     31 H31        -6.9115    4.9588   61.0826 H       1  ZINC000540473851    0.0900
     32 H32        -8.6248    5.4089   60.9097 H       1  ZINC000540473851    0.0800
     33 H33        -7.7895    5.6654   62.4604 H       1  ZINC000540473851    0.0800
     34 H34        -9.4327    2.0914   56.9544 H       1  ZINC000540473851    0.0900
     35 H35       -10.1426    3.6289   57.5135 H       1  ZINC000540473851    0.0900
     36 H36        -8.4313    3.9234   55.6774 H       1  ZINC000540473851    0.1000
     37 H37        -8.0169    4.7881   57.1776 H       1  ZINC000540473851    0.0400
     38 H38        -7.1229    5.3132   55.3477 H       1  ZINC000540473851    0.0700
     39 H39        -6.1360    5.6484   56.7906 H       1  ZINC000540473851    0.0600
     40 H40        -5.3812    5.6392   55.1786 H       1  ZINC000540473851    0.0600
     41 H41        -7.7493    2.0821   54.8964 H       1  ZINC000540473851    0.1400
     42 H42        -7.7688    1.0200   52.6752 H       1  ZINC000540473851    0.1300
     43 H43        -5.8908    1.3751   51.1237 H       1  ZINC000540473851    0.1300
     44 H44        -3.9758    3.8633   54.0161 H       1  ZINC000540473851    0.1300
     45 H45        -5.4485    2.4394   58.2085 H       1  ZINC000540473851    0.1000
     46 H46        -6.3120    3.9399   58.6243 H       1  ZINC000540473851    0.0400
     47 H47        -7.1488    2.1481   60.0502 H       1  ZINC000540473851    0.1000
     48 H48        -7.4599    1.1151   58.6302 H       1  ZINC000540473851    0.0800
     49 H49        -6.6693    1.7523   67.6514 H       1  ZINC000540473851    0.1800
     50 H50        -7.4342   -0.5910   67.9709 H       1  ZINC000540473851    0.1600
     51 H51        -8.6542   -1.7120   66.1180 H       1  ZINC000540473851    0.1800
@<TRIPOS>BOND
     1     1     2    1
     2     1    31    1
     3     1    32    1
     4     1    33    1
     5     2    30    1
     6     2     3    2
     7     3     4    1
     8     3    22    1
     9     4     5    2
    10     4     6   am
    11     6    21    1
    12     6     7    1
    13     7     8    1
    14     7    34    1
    15     7    35    1
    16     8     9    1
    17     8    36    1
    18     8    37    1
    19     9    10    1
    20     9    20    1
    21    10    11    1
    22    10    12    1
    23    10    13    1
    24    12    38    1
    25    12    39    1
    26    12    40    1
    27    13    19   ar
    28    13    14   ar
    29    14    15   ar
    30    14    41    1
    31    15    16   ar
    32    15    42    1
    33    16    17   ar
    34    16    43    1
    35    17    18    1
    36    17    19   ar
    37    19    44    1
    38    20    21    1
    39    20    45    1
    40    20    46    1
    41    21    47    1
    42    21    48    1
    43    22    23    1
    44    23    24    1
    45    23    30    2
    46    24    29   ar
    47    24    25   ar
    48    25    26   ar
    49    26    27   ar
    50    26    49    1
    51    27    28   ar
    52    27    50    1
    53    28    29   ar
    54    28    51    1
@<TRIPOS>SUBSTRUCTURE
     1 ZINC000540473851        1 TEMP              0 ****  ****    0 ROOT


##########                                Name:    ZINC001211202056
##########                DOCK_Rotatable_Bonds:                   4
##########                         Heavy_Atoms:                  23
##########                    Molecular_Weight:             386.181
##########                DOCK_Rotatable_Bonds:                   4
##########                       Formal_Charge:           0.0199999
##########                     HBond_Acceptors:                  11
##########                        HBond_Donors:                   3
##########                         Heavy_Atoms:                  23
##########                          Grid_Score:          -22.011150
##########                     Grid_vdw_energy:          -22.355968
##########                      Grid_es_energy:            0.344818
##########           Internal_energy_repulsive:            6.393969

@<TRIPOS>MOLECULE
ZINC001211202056
 31 32 1 0 0
SMALL
USER_CHARGES


@<TRIPOS>ATOM
      1 N1         -5.3137    5.1940   58.3875 N.pl3   1  ZINC001211202056   -0.8500
      2 C2         -5.9241    3.9979   58.7748 C.ar    1  ZINC001211202056    0.2900
      3 C3         -5.5962    2.8104   58.1348 C.ar    1  ZINC001211202056   -0.2000
      4 C4         -6.2014    1.6296   58.5199 C.ar    1  ZINC001211202056    0.0400
      5 C5         -7.1330    1.6292   59.5413 C.ar    1  ZINC001211202056   -0.7300
      6 S6         -7.9021    0.1207   60.0289 S.o2    1  ZINC001211202056    2.6900
      7 O7         -7.1080   -0.9271   59.4896 O.2     1  ZINC001211202056   -0.9400
      8 O8         -8.1867    0.2453   61.4155 O.2     1  ZINC001211202056   -0.9300
      9 N9         -9.3647    0.0441   59.2563 N.am    1  ZINC001211202056   -1.0500
     10 C10        -9.4188    0.0538   57.8596 C.ar    1  ZINC001211202056    0.1600
     11 C11        -9.0844    1.2022   57.1477 C.ar    1  ZINC001211202056   -0.1200
     12 C12        -9.1530    1.1629   55.7640 C.ar    1  ZINC001211202056   -0.0800
     13 C13        -9.5479   -0.0051   55.1403 C.ar    1  ZINC001211202056    0.0400
     14 C14        -9.6246   -0.0545   53.6360 C.3     1  ZINC001211202056    0.5300
     15 F15        -9.9131   -1.3607   53.2264 F       1  ZINC001211202056   -0.1700
     16 F16       -10.6336    0.8070   53.1920 F       1  ZINC001211202056   -0.1600
     17 F17        -8.3985    0.3446   53.0932 F       1  ZINC001211202056   -0.1700
     18 N18        -9.8584   -1.0778   55.8426 N.ar    1  ZINC001211202056   -0.4100
     19 C19        -9.8022   -1.0854   57.1600 C.ar    1  ZINC001211202056    0.1600
     20 Cl20      -10.2223   -2.5278   58.0301 Cl      1  ZINC001211202056    0.0000
     21 C21        -7.4627    2.8101   60.1817 C.ar    1  ZINC001211202056    0.0400
     22 C22        -6.8568    3.9936   59.8057 C.ar    1  ZINC001211202056   -0.1400
     23 Cl23       -7.2707    5.4756   60.6097 Cl      1  ZINC001211202056   -0.0500
     24 H24        -5.5407    6.0225   58.8381 H       1  ZINC001211202056    0.4100
     25 H25        -4.6602    5.1951   57.6707 H       1  ZINC001211202056    0.4100
     26 H26        -4.8691    2.8096   57.3363 H       1  ZINC001211202056    0.1400
     27 H27        -5.9465    0.7056   58.0222 H       1  ZINC001211202056    0.1500
     28 H28       -10.1841   -0.0075   59.7730 H       1  ZINC001211202056    0.4400
     29 H29        -8.7792    2.1021   57.6612 H       1  ZINC001211202056    0.2000
     30 H30        -8.9010    2.0355   55.1798 H       1  ZINC001211202056    0.1700
     31 H31        -8.1909    2.8063   60.9792 H       1  ZINC001211202056    0.1500
@<TRIPOS>BOND
     1     1     2    1
     2     1    24    1
     3     1    25    1
     4     2    22   ar
     5     2     3   ar
     6     3     4   ar
     7     3    26    1
     8     4     5   ar
     9     4    27    1
    10     5     6    1
    11     5    21   ar
    12     6     7    2
    13     6     8    2
    14     6     9   am
    15     9    10    1
    16     9    28    1
    17    10    19   ar
    18    10    11   ar
    19    11    12   ar
    20    11    29    1
    21    12    13   ar
    22    12    30    1
    23    13    14    1
    24    13    18   ar
    25    14    15    1
    26    14    16    1
    27    14    17    1
    28    18    19   ar
    29    19    20    1
    30    21    22   ar
    31    21    31    1
    32    22    23    1
@<TRIPOS>SUBSTRUCTURE
     1 ZINC001211202056        1 TEMP              0 ****  ****    0 ROOT


##########                                Name:    ZINC000879023512
##########                DOCK_Rotatable_Bonds:                   4
##########                         Heavy_Atoms:                  20
##########                    Molecular_Weight:             346.156
##########                DOCK_Rotatable_Bonds:                   4
##########                       Formal_Charge:        -5.96046e-08
##########                     HBond_Acceptors:                   7
##########                        HBond_Donors:                   1
##########                         Heavy_Atoms:                  20
##########                          Grid_Score:          -21.923088
##########                     Grid_vdw_energy:          -21.142290
##########                      Grid_es_energy:           -0.780798
##########           Internal_energy_repulsive:            3.534584

@<TRIPOS>MOLECULE
ZINC000879023512
 33 34 1 0 0
SMALL
USER_CHARGES


@<TRIPOS>ATOM
      1 O1         -7.6512    4.7681   51.0615 O.2     1  ZINC000879023512   -0.5600
      2 C2         -8.2366    3.9370   51.7286 C.2     1  ZINC000879023512    0.7200
      3 N3         -7.5697    3.2325   52.6643 N.am    1  ZINC000879023512   -0.6800
      4 C4         -6.2020    3.4537   52.8642 C.ar    1  ZINC000879023512    0.1800
      5 C5         -5.7777    4.3674   53.8197 C.ar    1  ZINC000879023512   -0.0900
      6 C6         -4.4274    4.5838   54.0149 C.ar    1  ZINC000879023512   -0.0700
      7 C7         -3.4983    3.8917   53.2590 C.ar    1  ZINC000879023512   -0.0700
      8 Br8        -1.6507    4.1906   53.5290 Br      1  ZINC000879023512    0.0200
      9 C9         -3.9185    2.9805   52.3060 C.ar    1  ZINC000879023512    0.0000
     10 N10        -2.9215    2.2417   51.4992 N.pl3   1  ZINC000879023512    0.0200
     11 O11        -3.2907    1.4396   50.6602 O.2     1  ZINC000879023512   -0.1500
     12 O12        -1.7319    2.4358   51.6741 O.2     1  ZINC000879023512   -0.1300
     13 C13        -5.2670    2.7556   52.1111 C.ar    1  ZINC000879023512   -0.0500
     14 N14        -9.5534    3.7241   51.5362 N.am    1  ZINC000879023512   -0.6300
     15 C15       -10.3834    2.7632   52.2775 C.3     1  ZINC000879023512    0.0900
     16 C16       -11.8115    2.8494   51.6992 C.3     1  ZINC000879023512   -0.1200
     17 C17       -11.5786    3.4457   50.2858 C.3     1  ZINC000879023512   -0.1400
     18 H18       -11.2940    2.6689   49.5761 H       1  ZINC000879023512    0.1000
     19 C19       -12.8160    4.2025   49.7991 C.3     1  ZINC000879023512    0.0700
     20 F20       -13.1023    5.2469   50.6849 F       1  ZINC000879023512   -0.2100
     21 C21       -10.4016    4.4206   50.5520 C.3     1  ZINC000879023512    0.1300
     22 H22        -8.0375    2.5724   53.1993 H       1  ZINC000879023512    0.4200
     23 H23        -6.5027    4.9086   54.4095 H       1  ZINC000879023512    0.1600
     24 H24        -4.0969    5.2944   54.7580 H       1  ZINC000879023512    0.1600
     25 H25        -5.5943    2.0442   51.3675 H       1  ZINC000879023512    0.1800
     26 H26        -9.9904    1.7550   52.1460 H       1  ZINC000879023512    0.0700
     27 H27       -10.3957    3.0233   53.3360 H       1  ZINC000879023512    0.0700
     28 H28       -12.2602    1.8584   51.6305 H       1  ZINC000879023512    0.0900
     29 H29       -12.4317    3.5139   52.3006 H       1  ZINC000879023512    0.0900
     30 H30       -12.6254    4.6102   48.8063 H       1  ZINC000879023512    0.0800
     31 H31       -13.6651    3.5204   49.7549 H       1  ZINC000879023512    0.0800
     32 H32       -10.7726    5.3605   50.9607 H       1  ZINC000879023512    0.0800
     33 H33        -9.8424    4.5997   49.6336 H       1  ZINC000879023512    0.0900
@<TRIPOS>BOND
     1     1     2    2
     2     2     3   am
     3     2    14   am
     4     3     4    1
     5     3    22    1
     6     4    13   ar
     7     4     5   ar
     8     5     6   ar
     9     5    23    1
    10     6     7   ar
    11     6    24    1
    12     7     8    1
    13     7     9   ar
    14     9    10    1
    15     9    13   ar
    16    10    11    2
    17    10    12    2
    18    13    25    1
    19    14    21    1
    20    14    15    1
    21    15    16    1
    22    15    26    1
    23    15    27    1
    24    16    17    1
    25    16    28    1
    26    16    29    1
    27    17    18    1
    28    17    19    1
    29    17    21    1
    30    19    20    1
    31    19    30    1
    32    19    31    1
    33    21    32    1
    34    21    33    1
@<TRIPOS>SUBSTRUCTURE
     1 ZINC000879023512        1 TEMP              0 ****  ****    0 ROOT


##########                                Name:    ZINC000793092912
##########                DOCK_Rotatable_Bonds:                   4
##########                         Heavy_Atoms:                  26
##########                    Molecular_Weight:               407.2
##########                DOCK_Rotatable_Bonds:                   4
##########                       Formal_Charge:         2.90573e-07
##########                     HBond_Acceptors:                  10
##########                        HBond_Donors:                   1
##########                         Heavy_Atoms:                  26
##########                          Grid_Score:          -21.799866
##########                     Grid_vdw_energy:          -20.325274
##########                      Grid_es_energy:           -1.474593
##########           Internal_energy_repulsive:           10.549615

@<TRIPOS>MOLECULE
ZINC000793092912
 40 43 1 0 0
SMALL
USER_CHARGES


@<TRIPOS>ATOM
      1 C1        -16.1065    0.8346   46.8266 C.3     1  ZINC000793092912   -0.1300
      2 C2        -15.4189    1.1334   48.1603 C.3     1  ZINC000793092912   -0.0800
      3 C3        -15.6380    0.0942   49.2490 C.3     1  ZINC000793092912   -0.1100
      4 C4        -14.3381   -0.3646   49.8827 C.3     1  ZINC000793092912    0.1100
      5 N5        -13.4222    0.7410   50.1069 N.am    1  ZINC000793092912   -0.5700
      6 C6        -12.9541    0.9544   51.3526 C.2     1  ZINC000793092912    0.5100
      7 O7        -12.1880    1.8715   51.5642 O.2     1  ZINC000793092912   -0.5100
      8 C8        -13.3781    0.0622   52.4725 C.2     1  ZINC000793092912    0.5100
      9 O9        -12.7459   -0.9442   52.7193 O.2     1  ZINC000793092912   -0.4900
     10 N10       -14.4626    0.3745   53.2093 N.am    1  ZINC000793092912   -0.6400
     11 C11       -14.8596   -0.4611   54.2582 C.ar    1  ZINC000793092912    0.1600
     12 C12       -16.0141   -1.2237   54.1397 C.ar    1  ZINC000793092912   -0.1200
     13 C13       -16.4076   -2.0497   55.1753 C.ar    1  ZINC000793092912   -0.0600
     14 C14       -15.6523   -2.1190   56.3347 C.ar    1  ZINC000793092912    0.0200
     15 O15       -15.8208   -2.8412   57.4816 O.3     1  ZINC000793092912   -0.2800
     16 C16       -14.5401   -2.8226   58.1391 C.3     1  ZINC000793092912    0.5700
     17 F17       -14.7012   -2.7992   59.5286 F       1  ZINC000793092912   -0.1100
     18 F18       -13.7733   -3.9273   57.7532 F       1  ZINC000793092912   -0.1500
     19 O19       -13.9369   -1.5989   57.6792 O.3     1  ZINC000793092912   -0.2800
     20 C20       -14.4934   -1.3549   56.4567 C.ar    1  ZINC000793092912    0.0500
     21 C21       -14.0963   -0.5325   55.4166 C.ar    1  ZINC000793092912   -0.0900
     22 C22       -12.9917    1.6256   49.0346 C.3     1  ZINC000793092912    0.1100
     23 C23       -14.1502    1.9683   48.1097 C.3     1  ZINC000793092912   -0.1200
     24 H24       -13.8534    2.2898   47.1114 H       1  ZINC000793092912    0.1400
     25 C25       -15.4323    2.5965   48.6347 C.3     1  ZINC000793092912    0.0000
     26 Cl26      -16.2486    3.8206   47.5927 Cl      1  ZINC000793092912   -0.0800
     27 Cl27      -15.5559    2.8783   50.4114 Cl      1  ZINC000793092912   -0.0900
     28 H28       -15.4212    0.2875   46.1790 H       1  ZINC000793092912    0.0800
     29 H29       -16.9975    0.2322   47.0041 H       1  ZINC000793092912    0.0700
     30 H30       -16.3907    1.7709   46.3465 H       1  ZINC000793092912    0.0700
     31 H31       -16.2756    0.5225   50.0223 H       1  ZINC000793092912    0.0900
     32 H32       -16.1434   -0.7692   48.8161 H       1  ZINC000793092912    0.1000
     33 H33       -14.5584   -0.8417   50.8376 H       1  ZINC000793092912    0.1100
     34 H34       -13.8613   -1.0924   49.2261 H       1  ZINC000793092912    0.0800
     35 H35       -14.9678    1.1787   53.0120 H       1  ZINC000793092912    0.4300
     36 H36       -16.6053   -1.1710   53.2373 H       1  ZINC000793092912    0.1500
     37 H37       -17.3058   -2.6420   55.0809 H       1  ZINC000793092912    0.1500
     38 H38       -13.1954    0.0561   55.5071 H       1  ZINC000793092912    0.1600
     39 H39       -12.6117    2.5514   49.4665 H       1  ZINC000793092912    0.1400
     40 H40       -12.1938    1.1418   48.4713 H       1  ZINC000793092912    0.1000
@<TRIPOS>BOND
     1     1     2    1
     2     1    28    1
     3     1    29    1
     4     1    30    1
     5     2    23    1
     6     2    25    1
     7     2     3    1
     8     3     4    1
     9     3    31    1
    10     3    32    1
    11     4     5    1
    12     4    33    1
    13     4    34    1
    14     5     6   am
    15     5    22    1
    16     6     7    2
    17     6     8    1
    18     8     9    2
    19     8    10   am
    20    10    11    1
    21    10    35    1
    22    11    21   ar
    23    11    12   ar
    24    12    13   ar
    25    12    36    1
    26    13    14   ar
    27    13    37    1
    28    14    20   ar
    29    14    15    1
    30    15    16    1
    31    16    17    1
    32    16    18    1
    33    16    19    1
    34    19    20    1
    35    20    21   ar
    36    21    38    1
    37    22    23    1
    38    22    39    1
    39    22    40    1
    40    23    24    1
    41    23    25    1
    42    25    26    1
    43    25    27    1
@<TRIPOS>SUBSTRUCTURE
     1 ZINC000793092912        1 TEMP              0 ****  ****    0 ROOT


##########                                Name:    ZINC000648570180
##########                DOCK_Rotatable_Bonds:                   4
##########                         Heavy_Atoms:                  25
##########                    Molecular_Weight:             342.484
##########                DOCK_Rotatable_Bonds:                   4
##########                       Formal_Charge:          0.00999971
##########                     HBond_Acceptors:                   5
##########                        HBond_Donors:                   0
##########                         Heavy_Atoms:                  25
##########                          Grid_Score:          -21.763096
##########                     Grid_vdw_energy:          -20.431597
##########                      Grid_es_energy:           -1.331499
##########           Internal_energy_repulsive:           85.027435

@<TRIPOS>MOLECULE
ZINC000648570180
 55 58 1 0 0
SMALL
USER_CHARGES


@<TRIPOS>ATOM
      1 C1        -13.6140    1.5482   54.2636 C.3     1  ZINC000648570180   -0.1500
      2 C2        -13.4174    1.3246   52.7629 C.3     1  ZINC000648570180   -0.0600
      3 C3        -13.8115   -0.1061   52.3906 C.3     1  ZINC000648570180   -0.1400
      4 C4        -14.2670    2.3332   51.9624 C.3     1  ZINC000648570180   -0.1200
      5 C5        -13.3803    2.6948   50.7451 C.3     1  ZINC000648570180   -0.1300
      6 C6        -11.9590    2.7410   51.3590 C.3     1  ZINC000648570180   -0.1200
      7 C7        -11.9500    1.5839   52.3792 C.3     1  ZINC000648570180   -0.0700
      8 H8        -11.5189    0.6906   51.9269 H       1  ZINC000648570180    0.0800
      9 C9        -11.1460    1.9836   53.6180 C.3     1  ZINC000648570180   -0.1000
     10 H10       -11.7139    2.6714   54.2446 H       1  ZINC000648570180    0.1000
     11 C11       -10.7058    0.7324   54.4231 C.3     1  ZINC000648570180   -0.1400
     12 C12        -9.4310    1.2169   55.1453 C.3     1  ZINC000648570180    0.1200
     13 N13        -8.9080    2.3625   54.3864 N.am    1  ZINC000648570180   -0.6000
     14 C14        -7.8131    3.0812   54.7041 C.2     1  ZINC000648570180    0.5800
     15 O15        -7.4728    4.0121   54.0018 O.2     1  ZINC000648570180   -0.5200
     16 C16        -7.0229    2.7352   55.9125 C.ar    1  ZINC000648570180    0.1600
     17 C17        -5.6308    2.8182   55.8956 C.ar    1  ZINC000648570180   -0.2000
     18 C18        -4.9350    2.4850   57.0497 C.ar    1  ZINC000648570180    0.1800
     19 N19        -5.6071    2.1024   58.1207 N.ar    1  ZINC000648570180   -0.5400
     20 C20        -6.9311    2.0332   58.1065 C.ar    1  ZINC000648570180    0.4800
     21 N21        -7.5973    1.6275   59.2501 N.3     1  ZINC000648570180   -0.4400
     22 C22        -6.9375    0.4441   59.8590 C.3     1  ZINC000648570180    0.0500
     23 C23        -7.4494    0.4662   61.3213 C.3     1  ZINC000648570180   -0.1200
     24 C24        -7.4900    1.9762   61.6505 C.3     1  ZINC000648570180   -0.1300
     25 C25        -7.5656    2.6837   60.2849 C.3     1  ZINC000648570180    0.0400
     26 N26        -7.6324    2.3466   57.0297 N.ar    1  ZINC000648570180   -0.5000
     27 C27        -9.7795    2.5949   53.2197 C.3     1  ZINC000648570180    0.1100
     28 H28       -13.2287    2.5301   54.5382 H       1  ZINC000648570180    0.0600
     29 H29       -14.6761    1.4949   54.5028 H       1  ZINC000648570180    0.0500
     30 H30       -13.0774    0.7790   54.8190 H       1  ZINC000648570180    0.0700
     31 H31       -14.8553   -0.2759   52.6549 H       1  ZINC000648570180    0.0500
     32 H32       -13.6799   -0.2519   51.3184 H       1  ZINC000648570180    0.0500
     33 H33       -13.1802   -0.8098   52.9331 H       1  ZINC000648570180    0.0500
     34 H34       -15.1975    1.8712   51.6329 H       1  ZINC000648570180    0.0600
     35 H35       -14.4717    3.2200   52.5622 H       1  ZINC000648570180    0.0700
     36 H36       -13.4448    1.9236   49.9775 H       1  ZINC000648570180    0.0700
     37 H37       -13.6581    3.6682   50.3405 H       1  ZINC000648570180    0.0700
     38 H38       -11.2053    2.5764   50.5890 H       1  ZINC000648570180    0.0700
     39 H39       -11.7911    3.6936   51.8612 H       1  ZINC000648570180    0.0700
     40 H40       -11.4727    0.4479   55.1435 H       1  ZINC000648570180    0.0900
     41 H41       -10.4779   -0.0967   53.7530 H       1  ZINC000648570180    0.0800
     42 H42        -9.6755    1.5261   56.1615 H       1  ZINC000648570180    0.0800
     43 H43        -8.6905    0.4174   55.1668 H       1  ZINC000648570180    0.0700
     44 H44        -5.1065    3.1339   55.0057 H       1  ZINC000648570180    0.1600
     45 H45        -3.8565    2.5377   57.0717 H       1  ZINC000648570180    0.1800
     46 H46        -7.2491   -0.4713   59.3561 H       1  ZINC000648570180    0.1000
     47 H47        -5.8531    0.5507   59.8293 H       1  ZINC000648570180    0.0500
     48 H48        -8.4459    0.0300   61.3876 H       1  ZINC000648570180    0.0800
     49 H49        -6.7547   -0.0538   61.9809 H       1  ZINC000648570180    0.0800
     50 H50        -8.3720    2.2097   62.2469 H       1  ZINC000648570180    0.0800
     51 H51        -6.5847    2.2723   62.1805 H       1  ZINC000648570180    0.0700
     52 H52        -6.6881    3.3148   60.1445 H       1  ZINC000648570180    0.0900
     53 H53        -8.4723    3.2861   60.2284 H       1  ZINC000648570180    0.0900
     54 H54        -9.3800    2.0887   52.3410 H       1  ZINC000648570180    0.0700
     55 H55        -9.8816    3.6632   53.0293 H       1  ZINC000648570180    0.0800
@<TRIPOS>BOND
     1     1     2    1
     2     1    28    1
     3     1    29    1
     4     1    30    1
     5     2     7    1
     6     2     3    1
     7     2     4    1
     8     3    31    1
     9     3    32    1
    10     3    33    1
    11     4     5    1
    12     4    34    1
    13     4    35    1
    14     5     6    1
    15     5    36    1
    16     5    37    1
    17     6     7    1
    18     6    38    1
    19     6    39    1
    20     7     8    1
    21     7     9    1
    22     9    10    1
    23     9    27    1
    24     9    11    1
    25    11    12    1
    26    11    40    1
    27    11    41    1
    28    12    13    1
    29    12    42    1
    30    12    43    1
    31    13    14   am
    32    13    27    1
    33    14    15    2
    34    14    16    1
    35    16    26   ar
    36    16    17   ar
    37    17    18   ar
    38    17    44    1
    39    18    19   ar
    40    18    45    1
    41    19    20   ar
    42    20    21    1
    43    20    26   ar
    44    21    25    1
    45    21    22    1
    46    22    23    1
    47    22    46    1
    48    22    47    1
    49    23    24    1
    50    23    48    1
    51    23    49    1
    52    24    25    1
    53    24    50    1
    54    24    51    1
    55    25    52    1
    56    25    53    1
    57    27    54    1
    58    27    55    1
@<TRIPOS>SUBSTRUCTURE
     1 ZINC000648570180        1 TEMP              0 ****  ****    0 ROOT


##########                                Name:    ZINC000371438955
##########                DOCK_Rotatable_Bonds:                   4
##########                         Heavy_Atoms:                  25
##########                    Molecular_Weight:             387.499
##########                DOCK_Rotatable_Bonds:                   4
##########                       Formal_Charge:          -0.0299995
##########                     HBond_Acceptors:                   9
##########                        HBond_Donors:                   1
##########                         Heavy_Atoms:                  25
##########                          Grid_Score:          -21.557676
##########                     Grid_vdw_energy:          -20.408066
##########                      Grid_es_energy:           -1.149611
##########           Internal_energy_repulsive:           32.993191

@<TRIPOS>MOLECULE
ZINC000371438955
 47 49 1 0 0
SMALL
USER_CHARGES


@<TRIPOS>ATOM
      1 C1        -12.2141    1.0282   57.1301 C.3     1  ZINC000371438955   -0.6800
      2 S2        -11.3382   -0.4107   57.8031 S.o2    1  ZINC000371438955    2.6000
      3 O3        -10.5561   -1.0350   56.7943 O.2     1  ZINC000371438955   -0.9500
      4 O4        -10.7848   -0.1070   59.0762 O.2     1  ZINC000371438955   -0.9500
      5 N5        -12.5352   -1.5077   58.1292 N.am    1  ZINC000371438955   -0.9900
      6 C6        -13.3663   -1.9684   57.0543 C.3     1  ZINC000371438955    0.1300
      7 C7        -14.5279   -0.9735   56.8932 C.3     1  ZINC000371438955   -0.1700
      8 C8        -15.5696   -1.1787   57.9119 C.3     1  ZINC000371438955    0.1400
      9 N9        -14.9954   -1.0397   59.2712 N.am    1  ZINC000371438955   -0.6200
     10 C10       -15.1962    0.0925   59.9744 C.2     1  ZINC000371438955    0.7100
     11 O11       -15.8481    0.9992   59.4935 O.2     1  ZINC000371438955   -0.5800
     12 N12       -14.6744    0.2195   61.2105 N.am    1  ZINC000371438955   -0.7400
     13 C13       -14.8926    1.4501   61.9749 C.3     1  ZINC000371438955    0.2000
     14 H14       -15.8109    1.9202   61.6229 H       1  ZINC000371438955    0.1100
     15 C15       -13.7325    2.3955   61.7158 C.3     1  ZINC000371438955   -0.1300
     16 C16       -13.9743    3.7038   62.4816 C.3     1  ZINC000371438955   -0.1100
     17 S17       -13.7103    3.3555   64.2444 S.3     1  ZINC000371438955   -0.1000
     18 C18       -14.6097    1.8557   64.4801 C.ar    1  ZINC000371438955   -0.1100
     19 C19       -14.8580    1.4462   65.7933 C.ar    1  ZINC000371438955    0.1100
     20 F20       -14.4197    2.2012   66.8243 F       1  ZINC000371438955   -0.1300
     21 C21       -15.5469    0.2781   66.0459 C.ar    1  ZINC000371438955   -0.1300
     22 C22       -15.9911   -0.4930   64.9868 C.ar    1  ZINC000371438955   -0.1000
     23 C23       -15.7500   -0.0897   63.6917 C.ar    1  ZINC000371438955   -0.1000
     24 C24       -15.0602    1.0929   63.4225 C.ar    1  ZINC000371438955   -0.0800
     25 C25       -14.2256   -2.1105   59.8399 C.3     1  ZINC000371438955    0.1000
     26 C26       -12.7101   -1.9888   59.5270 C.3     1  ZINC000371438955    0.0900
     27 H27       -12.7547    0.7361   56.2298 H       1  ZINC000371438955    0.1300
     28 H28       -12.9193    1.4039   57.8715 H       1  ZINC000371438955    0.1300
     29 H29       -11.4947    1.8094   56.8846 H       1  ZINC000371438955    0.1300
     30 H30       -12.7865   -2.0105   56.1322 H       1  ZINC000371438955    0.0800
     31 H31       -13.7582   -2.9578   57.2895 H       1  ZINC000371438955    0.0800
     32 H32       -14.1408    0.0416   56.9807 H       1  ZINC000371438955    0.0800
     33 H33       -14.9688   -1.0998   55.9042 H       1  ZINC000371438955    0.0900
     34 H34       -16.3579   -0.4384   57.7759 H       1  ZINC000371438955    0.0900
     35 H35       -15.9926   -2.1770   57.7994 H       1  ZINC000371438955    0.0700
     36 H36       -14.1543   -0.5039   61.5940 H       1  ZINC000371438955    0.4000
     37 H37       -12.8050    1.9376   62.0597 H       1  ZINC000371438955    0.0900
     38 H38       -13.6639    2.6049   60.6484 H       1  ZINC000371438955    0.1000
     39 H39       -13.2715    4.4659   62.1450 H       1  ZINC000371438955    0.1200
     40 H40       -14.9972    4.0444   62.3202 H       1  ZINC000371438955    0.1000
     41 H41       -15.7378   -0.0321   67.0626 H       1  ZINC000371438955    0.1400
     42 H42       -16.5266   -1.4117   65.1753 H       1  ZINC000371438955    0.1300
     43 H43       -16.0993   -0.6997   62.8718 H       1  ZINC000371438955    0.1400
     44 H44       -14.3639   -2.1086   60.9211 H       1  ZINC000371438955    0.0800
     45 H45       -14.5901   -3.0572   59.4414 H       1  ZINC000371438955    0.0900
     46 H46       -12.2354   -2.9630   59.6443 H       1  ZINC000371438955    0.0800
     47 H47       -12.2532   -1.2764   60.2139 H       1  ZINC000371438955    0.1000
@<TRIPOS>BOND
     1     1     2    1
     2     1    27    1
     3     1    28    1
     4     1    29    1
     5     2     3    2
     6     2     4    2
     7     2     5   am
     8     5    26    1
     9     5     6    1
    10     6     7    1
    11     6    30    1
    12     6    31    1
    13     7     8    1
    14     7    32    1
    15     7    33    1
    16     8     9    1
    17     8    34    1
    18     8    35    1
    19     9    10   am
    20     9    25    1
    21    10    11    2
    22    10    12   am
    23    12    13    1
    24    12    36    1
    25    13    14    1
    26    13    24    1
    27    13    15    1
    28    15    16    1
    29    15    37    1
    30    15    38    1
    31    16    17    1
    32    16    39    1
    33    16    40    1
    34    17    18    1
    35    18    24   ar
    36    18    19   ar
    37    19    20    1
    38    19    21   ar
    39    21    22   ar
    40    21    41    1
    41    22    23   ar
    42    22    42    1
    43    23    24   ar
    44    23    43    1
    45    25    26    1
    46    25    44    1
    47    25    45    1
    48    26    46    1
    49    26    47    1
@<TRIPOS>SUBSTRUCTURE
     1 ZINC000371438955        1 TEMP              0 ****  ****    0 ROOT


##########                                Name:    ZINC000820901229
##########                DOCK_Rotatable_Bonds:                   3
##########                         Heavy_Atoms:                  18
##########                    Molecular_Weight:             331.233
##########                DOCK_Rotatable_Bonds:                   3
##########                       Formal_Charge:           0.0099999
##########                     HBond_Acceptors:                   5
##########                        HBond_Donors:                   1
##########                         Heavy_Atoms:                  18
##########                          Grid_Score:          -21.550011
##########                     Grid_vdw_energy:          -20.363178
##########                      Grid_es_energy:           -1.186832
##########           Internal_energy_repulsive:            2.660668

@<TRIPOS>MOLECULE
ZINC000820901229
 33 35 1 0 0
SMALL
USER_CHARGES


@<TRIPOS>ATOM
      1 O1        -10.9468    0.2528   61.3796 O.2     1  ZINC000820901229   -0.5300
      2 C2         -9.7681    0.1308   61.1055 C.2     1  ZINC000820901229    0.6000
      3 N3         -9.3916   -0.0829   59.8292 N.am    1  ZINC000820901229   -0.7100
      4 C4        -10.4025   -0.1742   58.7728 C.3     1  ZINC000820901229    0.1600
      5 H5        -11.2403    0.4837   59.0037 H       1  ZINC000820901229    0.1000
      6 C6        -10.8960   -1.6244   58.6452 C.3     1  ZINC000820901229   -0.1300
      7 C7        -11.9053   -1.7735   57.5107 C.3     1  ZINC000820901229   -0.1100
      8 C8        -11.3355   -1.2531   56.1808 C.3     1  ZINC000820901229   -0.1100
      9 C9        -10.9423    0.1943   56.3935 C.3     1  ZINC000820901229    0.0800
     10 H10       -11.7955    0.7538   56.7773 H       1  ZINC000820901229    0.0700
     11 O11       -10.3687    0.8904   55.2929 O.3     1  ZINC000820901229   -0.3700
     12 C12        -9.7111    2.0455   55.8735 C.3     1  ZINC000820901229    0.0500
     13 C13        -9.3273    1.6681   57.3278 C.3     1  ZINC000820901229   -0.1500
     14 C14        -9.7919    0.2155   57.4381 C.3     1  ZINC000820901229   -0.1400
     15 H15        -8.9917   -0.4699   57.1590 H       1  ZINC000820901229    0.0900
     16 C16        -8.7519    0.2225   62.1673 C.2     1  ZINC000820901229    0.0100
     17 C17        -7.4428    0.4504   61.9194 C.2     1  ZINC000820901229   -0.2200
     18 S18        -6.5974    0.4859   63.4046 S.3     1  ZINC000820901229    0.3100
     19 C19        -8.0395    0.1946   64.2716 C.2     1  ZINC000820901229   -0.0100
     20 Br20       -8.1542    0.0490   66.1535 Br      1  ZINC000820901229    0.0700
     21 N21        -9.0388    0.0940   63.4660 N.2     1  ZINC000820901229   -0.4100
     22 H22        -8.4513   -0.1762   59.6100 H       1  ZINC000820901229    0.4100
     23 H23       -10.0434   -2.2751   58.4512 H       1  ZINC000820901229    0.0700
     24 H24       -11.3659   -1.9245   59.5818 H       1  ZINC000820901229    0.0700
     25 H25       -12.1642   -2.8265   57.3999 H       1  ZINC000820901229    0.0800
     26 H26       -12.8052   -1.2104   57.7578 H       1  ZINC000820901229    0.0700
     27 H27       -10.4595   -1.8374   55.8988 H       1  ZINC000820901229    0.0700
     28 H28       -12.0939   -1.3203   55.4009 H       1  ZINC000820901229    0.0800
     29 H29        -8.8140    2.2874   55.3037 H       1  ZINC000820901229    0.0900
     30 H30       -10.3918    2.8968   55.8782 H       1  ZINC000820901229    0.0600
     31 H31        -8.2490    1.7370   57.4719 H       1  ZINC000820901229    0.0800
     32 H32        -9.8536    2.3016   58.0419 H       1  ZINC000820901229    0.0800
     33 H33        -7.0028    0.5870   60.9426 H       1  ZINC000820901229    0.2000
@<TRIPOS>BOND
     1     1     2    2
     2     2     3   am
     3     2    16    1
     4     3     4    1
     5     3    22    1
     6     4     5    1
     7     4    14    1
     8     4     6    1
     9     6     7    1
    10     6    23    1
    11     6    24    1
    12     7     8    1
    13     7    25    1
    14     7    26    1
    15     8     9    1
    16     8    27    1
    17     8    28    1
    18     9    10    1
    19     9    14    1
    20     9    11    1
    21    11    12    1
    22    12    13    1
    23    12    29    1
    24    12    30    1
    25    13    14    1
    26    13    31    1
    27    13    32    1
    28    14    15    1
    29    16    21    1
    30    16    17    2
    31    17    18    1
    32    17    33    1
    33    18    19    1
    34    19    20    1
    35    19    21    2
@<TRIPOS>SUBSTRUCTURE
     1 ZINC000820901229        1 TEMP              0 ****  ****    0 ROOT


##########                                Name:    ZINC000931749147
##########                DOCK_Rotatable_Bonds:                   5
##########                         Heavy_Atoms:                  25
##########                    Molecular_Weight:             354.397
##########                DOCK_Rotatable_Bonds:                   5
##########                       Formal_Charge:        -4.76837e-07
##########                     HBond_Acceptors:                   7
##########                        HBond_Donors:                   1
##########                         Heavy_Atoms:                  25
##########                          Grid_Score:          -21.367907
##########                     Grid_vdw_energy:          -21.298775
##########                      Grid_es_energy:           -0.069132
##########           Internal_energy_repulsive:           83.660873

@<TRIPOS>MOLECULE
ZINC000931749147
 49 51 1 0 0
SMALL
USER_CHARGES


@<TRIPOS>ATOM
      1 C1         -5.6070    2.9019   54.0751 C.3     1  ZINC000931749147   -0.1100
      2 C2         -6.9563    3.2697   53.5139 C.ar    1  ZINC000931749147   -0.1300
      3 C3         -8.0401    3.4382   54.3647 C.ar    1  ZINC000931749147    0.1800
      4 N4         -7.8805    3.2668   55.7455 N.am    1  ZINC000931749147   -0.6800
      5 C5         -8.5027    2.2503   56.3747 C.2     1  ZINC000931749147    0.7100
      6 O6         -9.2026    1.4819   55.7436 O.2     1  ZINC000931749147   -0.5500
      7 N7         -8.3492    2.0854   57.7035 N.am    1  ZINC000931749147   -0.6200
      8 C8         -7.5075    3.0023   58.4884 C.3     1  ZINC000931749147    0.0700
      9 C9         -6.5357    2.1665   59.3293 C.3     1  ZINC000931749147    0.0500
     10 O10        -7.2732    1.1908   60.0696 O.3     1  ZINC000931749147   -0.3700
     11 C11        -7.9736    0.2459   59.2570 C.3     1  ZINC000931749147    0.0500
     12 C12        -9.0234    0.9867   58.4134 C.3     1  ZINC000931749147    0.1300
     13 H13        -9.8019    1.3856   59.0636 H       1  ZINC000931749147    0.0900
     14 C14        -9.6428    0.0231   57.3991 C.3     1  ZINC000931749147   -0.1100
     15 C15       -10.1192   -1.2394   58.1203 C.3     1  ZINC000931749147   -0.1000
     16 C16       -11.1833   -0.8666   59.1572 C.3     1  ZINC000931749147   -0.1500
     17 C17       -11.7102   -2.1431   59.8178 C.3     1  ZINC000931749147    0.0600
     18 O18       -12.2357   -3.0150   58.8148 O.3     1  ZINC000931749147   -0.3800
     19 C19       -11.2742   -3.4348   57.8445 C.3     1  ZINC000931749147    0.0600
     20 C20       -10.7298   -2.2101   57.1047 C.3     1  ZINC000931749147   -0.1500
     21 C21        -9.2825    3.7771   53.8453 C.ar    1  ZINC000931749147   -0.1200
     22 C22        -9.4389    3.9463   52.4834 C.ar    1  ZINC000931749147   -0.1100
     23 C23        -8.3582    3.7784   51.6349 C.ar    1  ZINC000931749147    0.0500
     24 F24        -8.5135    3.9445   50.3032 F       1  ZINC000931749147   -0.1300
     25 C25        -7.1149    3.4455   52.1510 C.ar    1  ZINC000931749147    0.0900
     26 F26        -6.0610    3.2819   51.3217 F       1  ZINC000931749147   -0.1200
     27 H27        -5.0522    3.8096   54.3122 H       1  ZINC000931749147    0.0800
     28 H28        -5.7392    2.3098   54.9807 H       1  ZINC000931749147    0.0700
     29 H29        -5.0534    2.3198   53.3382 H       1  ZINC000931749147    0.0800
     30 H30        -7.3223    3.8798   56.2491 H       1  ZINC000931749147    0.4100
     31 H31        -6.9464    3.6516   57.8163 H       1  ZINC000931749147    0.0800
     32 H32        -8.1348    3.6060   59.1442 H       1  ZINC000931749147    0.0900
     33 H33        -5.8250    1.6645   58.6727 H       1  ZINC000931749147    0.0600
     34 H34        -5.9984    2.8173   60.0190 H       1  ZINC000931749147    0.1100
     35 H35        -7.2680   -0.2630   58.6003 H       1  ZINC000931749147    0.0600
     36 H36        -8.4707   -0.4850   59.8948 H       1  ZINC000931749147    0.1100
     37 H37       -10.4903    0.5046   56.9113 H       1  ZINC000931749147    0.1100
     38 H38        -8.8972   -0.2454   56.6508 H       1  ZINC000931749147    0.0700
     39 H39        -9.2745   -1.7159   58.6178 H       1  ZINC000931749147    0.0700
     40 H40       -10.7421   -0.2196   59.9153 H       1  ZINC000931749147    0.0700
     41 H41       -12.0045   -0.3454   58.6652 H       1  ZINC000931749147    0.0700
     42 H42       -10.8966   -2.6429   60.3436 H       1  ZINC000931749147    0.0500
     43 H43       -12.4982   -1.8873   60.5262 H       1  ZINC000931749147    0.0900
     44 H44       -10.4550   -3.9513   58.3446 H       1  ZINC000931749147    0.0500
     45 H45       -11.7481   -4.1093   57.1314 H       1  ZINC000931749147    0.0900
     46 H46       -11.5419   -1.7159   56.5713 H       1  ZINC000931749147    0.0700
     47 H47        -9.9643   -2.5238   56.3949 H       1  ZINC000931749147    0.0700
     48 H48       -10.1266    3.9081   54.5062 H       1  ZINC000931749147    0.1800
     49 H49       -10.4055    4.2097   52.0800 H       1  ZINC000931749147    0.1500
@<TRIPOS>BOND
     1     1     2    1
     2     1    27    1
     3     1    28    1
     4     1    29    1
     5     2    25   ar
     6     2     3   ar
     7     3     4    1
     8     3    21   ar
     9     4     5   am
    10     4    30    1
    11     5     6    2
    12     5     7   am
    13     7    12    1
    14     7     8    1
    15     8     9    1
    16     8    31    1
    17     8    32    1
    18     9    10    1
    19     9    33    1
    20     9    34    1
    21    10    11    1
    22    11    12    1
    23    11    35    1
    24    11    36    1
    25    12    13    1
    26    12    14    1
    27    14    15    1
    28    14    37    1
    29    14    38    1
    30    15    20    1
    31    15    16    1
    32    15    39    1
    33    16    17    1
    34    16    40    1
    35    16    41    1
    36    17    18    1
    37    17    42    1
    38    17    43    1
    39    18    19    1
    40    19    20    1
    41    19    44    1
    42    19    45    1
    43    20    46    1
    44    20    47    1
    45    21    22   ar
    46    21    48    1
    47    22    23   ar
    48    22    49    1
    49    23    24    1
    50    23    25   ar
    51    25    26    1
@<TRIPOS>SUBSTRUCTURE
     1 ZINC000931749147        1 TEMP              0 ****  ****    0 ROOT


##########                                Name:    ZINC000431691749
##########                DOCK_Rotatable_Bonds:                   4
##########                         Heavy_Atoms:                  24
##########                    Molecular_Weight:             328.454
##########                DOCK_Rotatable_Bonds:                   4
##########                       Formal_Charge:         -0.00999957
##########                     HBond_Acceptors:                   4
##########                        HBond_Donors:                   0
##########                         Heavy_Atoms:                  24
##########                          Grid_Score:          -21.322018
##########                     Grid_vdw_energy:          -20.300661
##########                      Grid_es_energy:           -1.021356
##########           Internal_energy_repulsive:          133.012146

@<TRIPOS>MOLECULE
ZINC000431691749
 52 54 1 0 0
SMALL
USER_CHARGES


@<TRIPOS>ATOM
      1 C1        -12.1964    3.5712   50.0831 C.3     1  ZINC000431691749   -0.1200
      2 C2        -12.5248    2.3791   50.9446 C.ar    1  ZINC000431691749   -0.0800
      3 C3        -13.7459    1.7454   50.8113 C.ar    1  ZINC000431691749   -0.1200
      4 C4        -14.0472    0.6518   51.6016 C.ar    1  ZINC000431691749   -0.1100
      5 C5        -13.1271    0.1917   52.5246 C.ar    1  ZINC000431691749   -0.1100
      6 C6        -11.9052    0.8249   52.6574 C.ar    1  ZINC000431691749   -0.0800
      7 C7        -10.9021    0.3235   53.6641 C.3     1  ZINC000431691749    0.2000
      8 H8        -10.6485   -0.7124   53.4393 H       1  ZINC000431691749    0.1100
      9 N9         -9.6925    1.1474   53.6000 N.am    1  ZINC000431691749   -0.5700
     10 C10        -9.6726    2.4800   53.8004 C.2     1  ZINC000431691749    0.5200
     11 O11       -10.6164    3.1959   54.0579 O.2     1  ZINC000431691749   -0.4400
     12 C12        -8.2244    2.8973   53.6377 C.3     1  ZINC000431691749    0.0900
     13 H13        -8.1182    3.5994   52.8107 H       1  ZINC000431691749    0.1300
     14 C14        -7.6921    3.5108   54.9344 C.3     1  ZINC000431691749   -0.1500
     15 N15        -7.5314    1.6327   53.3363 N.am    1  ZINC000431691749   -0.6000
     16 C16        -6.0986    1.4578   53.0863 C.3     1  ZINC000431691749    0.1500
     17 C17        -5.7846    0.8180   51.7235 C.3     1  ZINC000431691749   -0.1600
     18 C18        -5.7655    2.2435   51.1471 C.3     1  ZINC000431691749   -0.1400
     19 C19        -5.4054    2.7264   52.5619 C.3     1  ZINC000431691749   -0.1500
     20 C20        -8.4701    0.6691   53.3409 C.2     1  ZINC000431691749    0.7000
     21 O21        -8.2352   -0.5040   53.1265 O.2     1  ZINC000431691749   -0.5300
     22 C22       -11.5031    0.4082   55.0686 C.3     1  ZINC000431691749   -0.0700
     23 C23       -12.6368    1.4356   55.0772 C.3     1  ZINC000431691749   -0.1400
     24 C24       -12.0530   -0.9615   55.4714 C.3     1  ZINC000431691749   -0.1400
     25 C25       -10.4203    0.8352   56.0617 C.3     1  ZINC000431691749   -0.1600
     26 C26       -11.6024    1.9156   51.8643 C.ar    1  ZINC000431691749   -0.1100
     27 H27       -11.7202    3.2340   49.1625 H       1  ZINC000431691749    0.0700
     28 H28       -13.1135    4.1088   49.8421 H       1  ZINC000431691749    0.0700
     29 H29       -11.5182    4.2329   50.6219 H       1  ZINC000431691749    0.0700
     30 H30       -14.4649    2.1049   50.0900 H       1  ZINC000431691749    0.1200
     31 H31       -15.0016    0.1571   51.4978 H       1  ZINC000431691749    0.1200
     32 H32       -13.3626   -0.6623   53.1424 H       1  ZINC000431691749    0.1100
     33 H33        -7.7840    2.7864   55.7436 H       1  ZINC000431691749    0.0700
     34 H34        -6.6438    3.7802   54.8052 H       1  ZINC000431691749    0.0800
     35 H35        -8.2692    4.4028   55.1778 H       1  ZINC000431691749    0.0800
     36 H36        -5.5775    0.9886   53.9208 H       1  ZINC000431691749    0.1000
     37 H37        -4.8159    0.3196   51.6880 H       1  ZINC000431691749    0.0900
     38 H38        -6.5941    0.2005   51.3343 H       1  ZINC000431691749    0.0700
     39 H39        -4.9748    2.4079   50.4151 H       1  ZINC000431691749    0.0700
     40 H40        -6.7405    2.5885   50.8029 H       1  ZINC000431691749    0.0800
     41 H41        -5.9086    3.6495   52.8496 H       1  ZINC000431691749    0.1000
     42 H42        -4.3330    2.7497   52.7556 H       1  ZINC000431691749    0.0900
     43 H43       -13.4081    1.1314   54.3697 H       1  ZINC000431691749    0.0600
     44 H44       -13.0649    1.4959   56.0777 H       1  ZINC000431691749    0.0600
     45 H45       -12.2450    2.4115   54.7902 H       1  ZINC000431691749    0.0600
     46 H46       -11.2454   -1.6934   55.4653 H       1  ZINC000431691749    0.0500
     47 H47       -12.4812   -0.9012   56.4720 H       1  ZINC000431691749    0.0600
     48 H48       -12.8244   -1.2657   54.7639 H       1  ZINC000431691749    0.0500
     49 H49        -9.6419    1.3875   55.5354 H       1  ZINC000431691749    0.0700
     50 H50       -10.8616    1.4713   56.8290 H       1  ZINC000431691749    0.0400
     51 H51        -9.9861   -0.0491   56.5283 H       1  ZINC000431691749    0.1000
     52 H52       -10.6479    2.4102   51.9680 H       1  ZINC000431691749    0.1300
@<TRIPOS>BOND
     1     1     2    1
     2     1    27    1
     3     1    28    1
     4     1    29    1
     5     2    26   ar
     6     2     3   ar
     7     3     4   ar
     8     3    30    1
     9     4     5   ar
    10     4    31    1
    11     5     6   ar
    12     5    32    1
    13     6     7    1
    14     6    26   ar
    15     7     8    1
    16     7     9    1
    17     7    22    1
    18     9    20   am
    19     9    10   am
    20    10    11    2
    21    10    12    1
    22    12    13    1
    23    12    14    1
    24    12    15    1
    25    14    33    1
    26    14    34    1
    27    14    35    1
    28    15    16    1
    29    15    20   am
    30    16    19    1
    31    16    17    1
    32    16    36    1
    33    17    18    1
    34    17    37    1
    35    17    38    1
    36    18    19    1
    37    18    39    1
    38    18    40    1
    39    19    41    1
    40    19    42    1
    41    20    21    2
    42    22    23    1
    43    22    24    1
    44    22    25    1
    45    23    43    1
    46    23    44    1
    47    23    45    1
    48    24    46    1
    49    24    47    1
    50    24    48    1
    51    25    49    1
    52    25    50    1
    53    25    51    1
    54    26    52    1
@<TRIPOS>SUBSTRUCTURE
     1 ZINC000431691749        1 TEMP              0 ****  ****    0 ROOT


##########                                Name:    ZINC000326056918
##########                DOCK_Rotatable_Bonds:                   6
##########                         Heavy_Atoms:                  24
##########                    Molecular_Weight:             408.326
##########                DOCK_Rotatable_Bonds:                   6
##########                       Formal_Charge:         -0.00999978
##########                     HBond_Acceptors:                   9
##########                        HBond_Donors:                   0
##########                         Heavy_Atoms:                  24
##########                          Grid_Score:          -21.275600
##########                     Grid_vdw_energy:          -21.667265
##########                      Grid_es_energy:            0.391665
##########           Internal_energy_repulsive:           24.812294

@<TRIPOS>MOLECULE
ZINC000326056918
 39 40 1 0 0
SMALL
USER_CHARGES


@<TRIPOS>ATOM
      1 C1        -13.3582    0.1422   60.1644 C.3     1  ZINC000326056918    0.0400
      2 O2        -11.9141    0.0015   60.1085 O.3     1  ZINC000326056918   -0.3500
      3 C3        -11.1814    0.9650   60.7040 C.2     1  ZINC000326056918    0.5000
      4 O4        -11.7350    1.8669   61.3036 O.2     1  ZINC000326056918   -0.4300
      5 C5         -9.7200    0.9252   60.6285 C.2     1  ZINC000326056918   -0.1600
      6 C6         -8.9708    1.2999   59.5476 C.2     1  ZINC000326056918   -0.6200
      7 S7         -9.6698    1.9023   58.0464 S.o2    1  ZINC000326056918    2.6900
      8 O8        -11.0207    2.2332   58.3372 O.2     1  ZINC000326056918   -0.9100
      9 O9         -8.7381    2.8348   57.5158 O.2     1  ZINC000326056918   -0.9400
     10 N10        -9.7176    0.6329   56.9839 N.am    1  ZINC000326056918   -0.9900
     11 C11        -9.2233   -0.6840   57.3931 C.3     1  ZINC000326056918    0.0900
     12 C12       -10.2542    0.8270   55.6345 C.3     1  ZINC000326056918    0.1500
     13 C13        -9.1170    0.9187   54.6501 C.ar    1  ZINC000326056918   -0.0900
     14 C14        -8.4025    2.0954   54.5277 C.ar    1  ZINC000326056918   -0.0800
     15 C15        -7.3594    2.1805   53.6245 C.ar    1  ZINC000326056918   -0.1100
     16 C16        -7.0299    1.0877   52.8429 C.ar    1  ZINC000326056918   -0.0200
     17 Cl17       -5.7196    1.1947   51.7092 Cl      1  ZINC000326056918   -0.0600
     18 C18        -7.7445   -0.0906   52.9653 C.ar    1  ZINC000326056918   -0.1100
     19 C19        -8.7847   -0.1768   53.8728 C.ar    1  ZINC000326056918   -0.0300
     20 Cl20       -9.6817   -1.6551   54.0275 Cl      1  ZINC000326056918   -0.0100
     21 C21        -7.6187    1.1606   59.7490 C.2     1  ZINC000326056918   -0.0400
     22 C22        -6.6034    1.5140   58.6930 C.3     1  ZINC000326056918   -0.1100
     23 C23        -7.2693    0.6885   60.9518 C.2     1  ZINC000326056918   -0.2600
     24 S24        -8.6460    0.3949   61.9158 S.3     1  ZINC000326056918    0.3100
     25 H25       -13.8253   -0.6971   59.6491 H       1  ZINC000326056918    0.1100
     26 H26       -13.6821    0.1554   61.2050 H       1  ZINC000326056918    0.0700
     27 H27       -13.6514    1.0741   59.6808 H       1  ZINC000326056918    0.0700
     28 H28       -10.0148   -1.2237   57.9131 H       1  ZINC000326056918    0.0600
     29 H29        -8.9178   -1.2475   56.5116 H       1  ZINC000326056918    0.0700
     30 H30        -8.3694   -0.5606   58.0594 H       1  ZINC000326056918    0.0900
     31 H31       -10.8939   -0.0160   55.3732 H       1  ZINC000326056918    0.1100
     32 H32       -10.8365    1.7480   55.6040 H       1  ZINC000326056918    0.0900
     33 H33        -8.6594    2.9488   55.1377 H       1  ZINC000326056918    0.1400
     34 H34        -6.8018    3.1005   53.5288 H       1  ZINC000326056918    0.1400
     35 H35        -7.4876   -0.9441   52.3553 H       1  ZINC000326056918    0.1500
     36 H36        -6.4020    2.5848   58.7264 H       1  ZINC000326056918    0.0900
     37 H37        -5.6802    0.9648   58.8783 H       1  ZINC000326056918    0.0700
     38 H38        -6.9934    1.2482   57.7104 H       1  ZINC000326056918    0.0900
     39 H39        -6.2514    0.5197   61.2709 H       1  ZINC000326056918    0.1800
@<TRIPOS>BOND
     1     1     2    1
     2     1    25    1
     3     1    26    1
     4     1    27    1
     5     2     3    1
     6     3     4    2
     7     3     5    1
     8     5    24    1
     9     5     6    2
    10     6     7    1
    11     6    21    1
    12     7     8    2
    13     7     9    2
    14     7    10   am
    15    10    11    1
    16    10    12    1
    17    11    28    1
    18    11    29    1
    19    11    30    1
    20    12    13    1
    21    12    31    1
    22    12    32    1
    23    13    19   ar
    24    13    14   ar
    25    14    15   ar
    26    14    33    1
    27    15    16   ar
    28    15    34    1
    29    16    17    1
    30    16    18   ar
    31    18    19   ar
    32    18    35    1
    33    19    20    1
    34    21    22    1
    35    21    23    2
    36    22    36    1
    37    22    37    1
    38    22    38    1
    39    23    24    1
    40    23    39    1
@<TRIPOS>SUBSTRUCTURE
     1 ZINC000326056918        1 TEMP              0 ****  ****    0 ROOT


##########                                Name:    ZINC000550782577
##########                DOCK_Rotatable_Bonds:                   5
##########                         Heavy_Atoms:                  25
##########                    Molecular_Weight:              338.45
##########                DOCK_Rotatable_Bonds:                   5
##########                       Formal_Charge:         -0.00999954
##########                     HBond_Acceptors:                   4
##########                        HBond_Donors:                   0
##########                         Heavy_Atoms:                  25
##########                          Grid_Score:          -21.154791
##########                     Grid_vdw_energy:          -20.908400
##########                      Grid_es_energy:           -0.246391
##########           Internal_energy_repulsive:           32.823421

@<TRIPOS>MOLECULE
ZINC000550782577
 51 53 1 0 0
SMALL
USER_CHARGES


@<TRIPOS>ATOM
      1 C1        -11.0500    2.0722   57.7766 C.3     1  ZINC000550782577    0.0700
      2 N2         -9.6957    1.5850   58.0503 N.am    1  ZINC000550782577   -0.5900
      3 C3         -9.4758    0.2665   58.2224 C.2     1  ZINC000550782577    0.5800
      4 O4         -8.3523   -0.1377   58.4495 O.2     1  ZINC000550782577   -0.5400
      5 C5        -10.6019   -0.6888   58.1348 C.ar    1  ZINC000550782577    0.0300
      6 C6        -11.0120   -1.3782   59.2752 C.ar    1  ZINC000550782577   -0.0600
      7 C7        -12.0664   -2.2691   59.1809 C.ar    1  ZINC000550782577   -0.1200
      8 C8        -12.6793   -2.4426   57.9433 C.ar    1  ZINC000550782577    0.1100
      9 O9        -13.7173   -3.3062   57.8062 O.3     1  ZINC000550782577   -0.3000
     10 C10       -15.0274   -2.7400   57.7360 C.3     1  ZINC000550782577    0.1000
     11 C11       -15.0272   -1.3685   58.4139 C.3     1  ZINC000550782577   -0.2000
     12 C12       -15.4379   -2.5845   56.2703 C.3     1  ZINC000550782577   -0.1400
     13 C13       -16.0199   -3.6611   58.4485 C.3     1  ZINC000550782577   -0.2000
     14 C14       -12.2153   -1.7192   56.8472 C.ar    1  ZINC000550782577   -0.0100
     15 N15       -11.2152   -0.8769   56.9717 N.ar    1  ZINC000550782577   -0.4100
     16 C16        -8.5805    2.5311   58.1371 C.3     1  ZINC000550782577    0.1400
     17 H17        -8.9475    3.5459   57.9842 H       1  ZINC000550782577    0.1100
     18 C18        -7.9186    2.4237   59.5159 C.3     1  ZINC000550782577   -0.1300
     19 C19        -6.9257    3.5747   59.6647 C.3     1  ZINC000550782577   -0.0800
     20 C20        -6.0005    3.6326   58.4774 C.ar    1  ZINC000550782577   -0.0800
     21 C21        -4.8200    4.3514   58.6119 C.ar    1  ZINC000550782577   -0.1200
     22 C22        -3.9334    4.4470   57.5591 C.ar    1  ZINC000550782577   -0.1200
     23 C23        -4.2221    3.8230   56.3600 C.ar    1  ZINC000550782577   -0.1200
     24 C24        -5.3934    3.1063   56.2251 C.ar    1  ZINC000550782577   -0.1200
     25 C25        -6.2853    3.0059   57.2847 C.ar    1  ZINC000550782577   -0.0700
     26 C26        -7.5374    2.1956   57.0731 C.3     1  ZINC000550782577   -0.0900
     27 H27       -11.5914    2.1875   58.7156 H       1  ZINC000550782577    0.0600
     28 H28       -10.9940    3.0350   57.2689 H       1  ZINC000550782577    0.0600
     29 H29       -11.5722    1.3565   57.1417 H       1  ZINC000550782577    0.1100
     30 H30       -10.5130   -1.2191   60.2196 H       1  ZINC000550782577    0.1600
     31 H31       -12.4058   -2.8175   60.0473 H       1  ZINC000550782577    0.1500
     32 H32       -14.6755   -0.6149   57.7093 H       1  ZINC000550782577    0.0700
     33 H33       -16.0393   -1.1216   58.7347 H       1  ZINC000550782577    0.0800
     34 H34       -14.3668   -1.3916   59.2808 H       1  ZINC000550782577    0.0800
     35 H35       -15.4380   -3.5616   55.7873 H       1  ZINC000550782577    0.0700
     36 H36       -16.4373   -2.1525   56.2168 H       1  ZINC000550782577    0.0800
     37 H37       -14.7308   -1.9283   55.7626 H       1  ZINC000550782577    0.0700
     38 H38       -15.7301   -3.7682   59.4938 H       1  ZINC000550782577    0.0800
     39 H39       -17.0200   -3.2314   58.3909 H       1  ZINC000550782577    0.0800
     40 H40       -16.0166   -4.6396   57.9685 H       1  ZINC000550782577    0.0700
     41 H41       -12.6865   -1.8492   55.8842 H       1  ZINC000550782577    0.1900
     42 H42        -8.6786    2.4917   60.2942 H       1  ZINC000550782577    0.0700
     43 H43        -7.3928    1.4724   59.5976 H       1  ZINC000550782577    0.0700
     44 H44        -7.4731    4.5142   59.7400 H       1  ZINC000550782577    0.0800
     45 H45        -6.3385    3.4278   60.5712 H       1  ZINC000550782577    0.0800
     46 H46        -4.5942    4.8400   59.5483 H       1  ZINC000550782577    0.1200
     47 H47        -3.0172    5.0075   57.6714 H       1  ZINC000550782577    0.1200
     48 H48        -3.5334    3.8965   55.5313 H       1  ZINC000550782577    0.1200
     49 H49        -5.6184    2.6194   55.2877 H       1  ZINC000550782577    0.1200
     50 H50        -7.2933    1.1349   57.1316 H       1  ZINC000550782577    0.0800
     51 H51        -7.9458    2.4159   56.0867 H       1  ZINC000550782577    0.0800
@<TRIPOS>BOND
     1     1     2    1
     2     1    27    1
     3     1    28    1
     4     1    29    1
     5     2     3   am
     6     2    16    1
     7     3     4    2
     8     3     5    1
     9     5    15   ar
    10     5     6   ar
    11     6     7   ar
    12     6    30    1
    13     7     8   ar
    14     7    31    1
    15     8     9    1
    16     8    14   ar
    17     9    10    1
    18    10    11    1
    19    10    12    1
    20    10    13    1
    21    11    32    1
    22    11    33    1
    23    11    34    1
    24    12    35    1
    25    12    36    1
    26    12    37    1
    27    13    38    1
    28    13    39    1
    29    13    40    1
    30    14    15   ar
    31    14    41    1
    32    16    17    1
    33    16    26    1
    34    16    18    1
    35    18    19    1
    36    18    42    1
    37    18    43    1
    38    19    20    1
    39    19    44    1
    40    19    45    1
    41    20    25   ar
    42    20    21   ar
    43    21    22   ar
    44    21    46    1
    45    22    23   ar
    46    22    47    1
    47    23    24   ar
    48    23    48    1
    49    24    25   ar
    50    24    49    1
    51    25    26    1
    52    26    50    1
    53    26    51    1
@<TRIPOS>SUBSTRUCTURE
     1 ZINC000550782577        1 TEMP              0 ****  ****    0 ROOT


##########                                Name:    ZINC000541315701
##########                DOCK_Rotatable_Bonds:                   4
##########                         Heavy_Atoms:                  25
##########                    Molecular_Weight:             422.709
##########                DOCK_Rotatable_Bonds:                   4
##########                       Formal_Charge:           0.0300003
##########                     HBond_Acceptors:                   6
##########                        HBond_Donors:                   0
##########                         Heavy_Atoms:                  25
##########                          Grid_Score:          -20.970860
##########                     Grid_vdw_energy:          -20.323891
##########                      Grid_es_energy:           -0.646969
##########           Internal_energy_repulsive:           20.736670

@<TRIPOS>MOLECULE
ZINC000541315701
 42 44 1 0 0
SMALL
USER_CHARGES


@<TRIPOS>ATOM
      1 C1        -12.1359   -2.9427   58.0844 C.3     1  ZINC000541315701    0.0800
      2 N2        -11.5700   -1.5962   57.9703 N.am    1  ZINC000541315701   -0.5700
      3 C3        -11.0653   -0.9828   59.0590 C.2     1  ZINC000541315701    0.5400
      4 O4        -11.0796   -1.5454   60.1333 O.2     1  ZINC000541315701   -0.5000
      5 C5        -10.4833    0.4024   58.9416 C.3     1  ZINC000541315701   -0.1100
      6 H6        -10.8118    0.8844   58.0208 H       1  ZINC000541315701    0.1300
      7 C7        -10.8452    1.2611   60.1754 C.3     1  ZINC000541315701   -0.1500
      8 C8         -9.6713    1.0781   61.1119 C.2     1  ZINC000541315701    0.5200
      9 O9         -9.6766    1.3505   62.2938 O.2     1  ZINC000541315701   -0.5200
     10 N10        -8.6218    0.5694   60.4438 N.am    1  ZINC000541315701   -0.6100
     11 C11        -7.3255    0.2602   61.0524 C.3     1  ZINC000541315701    0.0900
     12 C12        -8.9413    0.3631   59.0253 C.3     1  ZINC000541315701    0.1900
     13 H13        -8.5697   -0.6059   58.6920 H       1  ZINC000541315701    0.1100
     14 C14        -8.3429    1.4655   58.1902 C.ar    1  ZINC000541315701   -0.0900
     15 C15        -7.9223    2.6369   58.7914 C.ar    1  ZINC000541315701   -0.1000
     16 C16        -7.3728    3.6488   58.0260 C.ar    1  ZINC000541315701   -0.1000
     17 C17        -7.2442    3.4896   56.6593 C.ar    1  ZINC000541315701   -0.1000
     18 C18        -7.6650    2.3171   56.0569 C.ar    1  ZINC000541315701   -0.0300
     19 Cl19       -7.5031    2.1162   54.3402 Cl      1  ZINC000541315701   -0.0600
     20 C20        -8.2095    1.3029   56.8240 C.ar    1  ZINC000541315701   -0.0900
     21 C21       -11.5536   -0.9493   56.7352 C.ar    1  ZINC000541315701    0.3800
     22 N22       -12.4490   -0.0103   56.4749 N.ar    1  ZINC000541315701   -0.4700
     23 C23       -12.4685    0.6266   55.3195 C.ar    1  ZINC000541315701    0.1300
     24 C24       -11.5478    0.3332   54.3333 C.ar    1  ZINC000541315701   -0.1600
     25 C25       -10.5912   -0.6457   54.5658 C.ar    1  ZINC000541315701   -0.0400
     26 C26       -10.5926   -1.2927   55.7897 C.ar    1  ZINC000541315701   -0.1300
     27 Br27       -9.3144   -2.6346   56.1660 Br      1  ZINC000541315701   -0.0200
     28 H28       -12.6133   -3.0548   59.0578 H       1  ZINC000541315701    0.0900
     29 H29       -12.8749   -3.0941   57.2976 H       1  ZINC000541315701    0.0800
     30 H30       -11.3404   -3.6809   57.9826 H       1  ZINC000541315701    0.0700
     31 H31       -10.9487    2.3090   59.8938 H       1  ZINC000541315701    0.1200
     32 H32       -11.7626    0.8969   60.6379 H       1  ZINC000541315701    0.1100
     33 H33        -7.3543    0.5069   62.1137 H       1  ZINC000541315701    0.0900
     34 H34        -7.1115   -0.8018   60.9319 H       1  ZINC000541315701    0.0700
     35 H35        -6.5462    0.8456   60.5643 H       1  ZINC000541315701    0.0600
     36 H36        -8.0234    2.7621   59.8594 H       1  ZINC000541315701    0.1300
     37 H37        -7.0443    4.5639   58.4962 H       1  ZINC000541315701    0.1400
     38 H38        -6.8155    4.2804   56.0614 H       1  ZINC000541315701    0.1400
     39 H39        -8.5381    0.3876   56.3544 H       1  ZINC000541315701    0.1400
     40 H40       -13.2147    1.3871   55.1427 H       1  ZINC000541315701    0.1700
     41 H41       -11.5718    0.8596   53.3906 H       1  ZINC000541315701    0.1500
     42 H42        -9.8600   -0.8938   53.8108 H       1  ZINC000541315701    0.1500
@<TRIPOS>BOND
     1     1     2    1
     2     1    28    1
     3     1    29    1
     4     1    30    1
     5     2     3   am
     6     2    21    1
     7     3     4    2
     8     3     5    1
     9     5     6    1
    10     5    12    1
    11     5     7    1
    12     7     8    1
    13     7    31    1
    14     7    32    1
    15     8     9    2
    16     8    10   am
    17    10    11    1
    18    10    12    1
    19    11    33    1
    20    11    34    1
    21    11    35    1
    22    12    13    1
    23    12    14    1
    24    14    20   ar
    25    14    15   ar
    26    15    16   ar
    27    15    36    1
    28    16    17   ar
    29    16    37    1
    30    17    18   ar
    31    17    38    1
    32    18    19    1
    33    18    20   ar
    34    20    39    1
    35    21    26   ar
    36    21    22   ar
    37    22    23   ar
    38    23    24   ar
    39    23    40    1
    40    24    25   ar
    41    24    41    1
    42    25    26   ar
    43    25    42    1
    44    26    27    1
@<TRIPOS>SUBSTRUCTURE
     1 ZINC000541315701        1 TEMP              0 ****  ****    0 ROOT


##########                                Name:    ZINC000569288350
##########                DOCK_Rotatable_Bonds:                   3
##########                         Heavy_Atoms:                  19
##########                    Molecular_Weight:             393.559
##########                DOCK_Rotatable_Bonds:                   3
##########                       Formal_Charge:           0.0299999
##########                     HBond_Acceptors:                   5
##########                        HBond_Donors:                   1
##########                         Heavy_Atoms:                  19
##########                          Grid_Score:          -20.410669
##########                     Grid_vdw_energy:          -19.858164
##########                      Grid_es_energy:           -0.552506
##########           Internal_energy_repulsive:            4.732255

@<TRIPOS>MOLECULE
ZINC000569288350
 26 27 1 0 0
SMALL
USER_CHARGES


@<TRIPOS>ATOM
      1 O1         -5.6968    4.2901   52.8315 O.2     1  ZINC000569288350   -0.4800
      2 C2         -5.2159    3.1888   53.0166 C.2     1  ZINC000569288350    0.5700
      3 N3         -5.8899    2.2720   53.7390 N.am    1  ZINC000569288350   -0.6600
      4 C4         -7.1402    2.5895   54.2806 C.ar    1  ZINC000569288350    0.1800
      5 C5         -8.2328    2.7779   53.4447 C.ar    1  ZINC000569288350   -0.1200
      6 C6         -9.4668    3.0914   53.9811 C.ar    1  ZINC000569288350   -0.0600
      7 C7         -9.6160    3.2185   55.3495 C.ar    1  ZINC000569288350   -0.1500
      8 C8         -8.5293    3.0316   56.1878 C.ar    1  ZINC000569288350    0.1300
      9 F9         -8.6783    3.1560   57.5248 F       1  ZINC000569288350   -0.1200
     10 C10        -7.2921    2.7113   55.6564 C.ar    1  ZINC000569288350   -0.1000
     11 Cl11       -5.9295    2.4762   56.7059 Cl      1  ZINC000569288350   -0.0400
     12 C12        -3.8967    2.8538   52.4451 C.ar    1  ZINC000569288350   -0.1400
     13 C13        -3.8077    2.0335   51.3159 C.ar    1  ZINC000569288350    0.1400
     14 F14        -4.9294    1.5447   50.7432 F       1  ZINC000569288350   -0.1200
     15 C15        -2.5676    1.7247   50.7872 C.ar    1  ZINC000569288350   -0.1300
     16 C16        -1.4194    2.2245   51.3726 C.ar    1  ZINC000569288350   -0.0600
     17 C17        -1.5010    3.0365   52.4907 C.ar    1  ZINC000569288350   -0.0900
     18 C18        -2.7306    3.3592   53.0261 C.ar    1  ZINC000569288350   -0.0500
     19 I19        -2.8488    4.5887   54.7183 I       1  ZINC000569288350    0.0000
     20 H20        -5.5081    1.3921   53.8832 H       1  ZINC000569288350    0.4200
     21 H21        -8.1180    2.6797   52.3752 H       1  ZINC000569288350    0.1600
     22 H22       -10.3161    3.2378   53.3303 H       1  ZINC000569288350    0.1500
     23 H23       -10.5818    3.4644   55.7657 H       1  ZINC000569288350    0.1500
     24 H24        -2.4961    1.0915   49.9152 H       1  ZINC000569288350    0.1500
     25 H25        -0.4537    1.9799   50.9557 H       1  ZINC000569288350    0.1500
     26 H26        -0.5992    3.4228   52.9424 H       1  ZINC000569288350    0.1500
@<TRIPOS>BOND
     1     1     2    2
     2     2     3   am
     3     2    12    1
     4     3     4    1
     5     3    20    1
     6     4    10   ar
     7     4     5   ar
     8     5     6   ar
     9     5    21    1
    10     6     7   ar
    11     6    22    1
    12     7     8   ar
    13     7    23    1
    14     8     9    1
    15     8    10   ar
    16    10    11    1
    17    12    18   ar
    18    12    13   ar
    19    13    14    1
    20    13    15   ar
    21    15    16   ar
    22    15    24    1
    23    16    17   ar
    24    16    25    1
    25    17    18   ar
    26    17    26    1
    27    18    19    1
@<TRIPOS>SUBSTRUCTURE
     1 ZINC000569288350        1 TEMP              0 ****  ****    0 ROOT


##########                                Name:    ZINC000462219577
##########                DOCK_Rotatable_Bonds:                   8
##########                         Heavy_Atoms:                  31
##########                    Molecular_Weight:             418.539
##########                DOCK_Rotatable_Bonds:                   8
##########                       Formal_Charge:         -0.00999914
##########                     HBond_Acceptors:                   6
##########                        HBond_Donors:                   2
##########                         Heavy_Atoms:                  31
##########                          Grid_Score:          -20.045807
##########                     Grid_vdw_energy:          -18.555843
##########                      Grid_es_energy:           -1.489964
##########           Internal_energy_repulsive:           51.516582

@<TRIPOS>MOLECULE
ZINC000462219577
 61 64 1 0 0
SMALL
USER_CHARGES


@<TRIPOS>ATOM
      1 C1        -11.4582    1.5763   58.1322 C.3     1  ZINC000462219577   -0.0700
      2 C2        -10.1944    1.7146   58.9416 C.2     1  ZINC000462219577    0.0800
      3 N3        -10.1058    1.6351   60.2449 N.2     1  ZINC000462219577   -0.2900
      4 N4         -8.7643    1.8176   60.6046 N.pl3   1  ZINC000462219577   -0.3200
      5 C5         -8.2506    1.8037   61.9089 C.ar    1  ZINC000462219577    0.1500
      6 C6         -8.7488    0.9057   62.8432 C.ar    1  ZINC000462219577   -0.1100
      7 C7         -8.2407    0.8944   64.1274 C.ar    1  ZINC000462219577   -0.1000
      8 C8         -7.2370    1.7766   64.4832 C.ar    1  ZINC000462219577   -0.1200
      9 C9         -6.7390    2.6725   63.5550 C.ar    1  ZINC000462219577   -0.1000
     10 C10        -7.2386    2.6840   62.2673 C.ar    1  ZINC000462219577   -0.1300
     11 C11        -8.0525    2.0092   59.4708 C.2     1  ZINC000462219577    0.0900
     12 C12        -6.5669    2.2460   59.3835 C.3     1  ZINC000462219577   -0.0800
     13 C13        -6.3045    3.6029   58.7270 C.3     1  ZINC000462219577    0.1700
     14 H14        -5.2304    3.7819   58.6796 H       1  ZINC000462219577    0.1000
     15 C15        -6.9695    4.7061   59.5527 C.3     1  ZINC000462219577   -0.1600
     16 N16        -6.8604    3.6052   57.3715 N.am    1  ZINC000462219577   -0.7400
     17 C17        -6.5134    4.5753   56.5026 C.2     1  ZINC000462219577    0.7100
     18 O18        -5.7381    5.4477   56.8432 O.2     1  ZINC000462219577   -0.5800
     19 N19        -7.0261    4.5783   55.2560 N.am    1  ZINC000462219577   -0.7400
     20 C20        -6.6477    5.6317   54.3110 C.3     1  ZINC000462219577    0.1600
     21 H21        -6.6534    6.5963   54.8187 H       1  ZINC000462219577    0.1000
     22 C22        -5.2452    5.3494   53.7635 C.3     1  ZINC000462219577   -0.1700
     23 C23        -5.2652    4.0300   52.9871 C.3     1  ZINC000462219577    0.0700
     24 O24        -6.2328    4.1105   51.9387 O.3     1  ZINC000462219577   -0.3700
     25 C25        -7.5700    4.3262   52.3943 C.3     1  ZINC000462219577    0.1400
     26 H26        -7.8622    3.5151   53.0612 H       1  ZINC000462219577    0.0600
     27 C27        -8.5036    4.3654   51.2118 C.ar    1  ZINC000462219577   -0.0900
     28 C28        -8.0725    4.8905   50.0079 C.ar    1  ZINC000462219577   -0.0900
     29 C29        -8.9289    4.9264   48.9234 C.ar    1  ZINC000462219577   -0.1200
     30 C30       -10.2162    4.4371   49.0426 C.ar    1  ZINC000462219577   -0.1200
     31 C31       -10.6469    3.9111   50.2463 C.ar    1  ZINC000462219577   -0.1200
     32 C32        -9.7892    3.8712   51.3296 C.ar    1  ZINC000462219577   -0.1100
     33 C33        -7.6440    5.6589   53.1479 C.3     1  ZINC000462219577   -0.1500
     34 C34        -8.9131    1.9440   58.4286 C.2     1  ZINC000462219577   -0.2600
     35 H35       -11.6085    0.5293   57.8693 H       1  ZINC000462219577    0.0800
     36 H36       -12.3061    1.9289   58.7195 H       1  ZINC000462219577    0.0700
     37 H37       -11.3739    2.1709   57.2226 H       1  ZINC000462219577    0.0800
     38 H38        -9.5331    0.2169   62.5662 H       1  ZINC000462219577    0.1300
     39 H39        -8.6278    0.1961   64.8547 H       1  ZINC000462219577    0.1300
     40 H40        -6.8415    1.7662   65.4881 H       1  ZINC000462219577    0.1300
     41 H41        -5.9557    3.3607   63.8358 H       1  ZINC000462219577    0.1300
     42 H42        -6.8492    3.3839   61.5427 H       1  ZINC000462219577    0.1300
     43 H43        -6.1380    2.2382   60.3855 H       1  ZINC000462219577    0.0900
     44 H44        -6.1080    1.4585   58.7858 H       1  ZINC000462219577    0.1100
     45 H45        -8.0437    4.5270   59.6002 H       1  ZINC000462219577    0.0600
     46 H46        -6.5559    4.7044   60.5612 H       1  ZINC000462219577    0.0700
     47 H47        -6.7826    5.6727   59.0850 H       1  ZINC000462219577    0.0700
     48 H48        -7.4780    2.9085   57.0995 H       1  ZINC000462219577    0.3900
     49 H49        -7.6456    3.8829   54.9848 H       1  ZINC000462219577    0.3900
     50 H50        -4.9440    6.1588   53.0985 H       1  ZINC000462219577    0.0800
     51 H51        -4.5394    5.2745   54.5907 H       1  ZINC000462219577    0.0800
     52 H52        -4.2799    3.8453   52.5590 H       1  ZINC000462219577    0.1000
     53 H53        -5.5271    3.2150   53.6618 H       1  ZINC000462219577    0.0500
     54 H54        -7.0668    5.2728   49.9148 H       1  ZINC000462219577    0.1300
     55 H55        -8.5923    5.3372   47.9830 H       1  ZINC000462219577    0.1200
     56 H56       -10.8854    4.4657   48.1954 H       1  ZINC000462219577    0.1200
     57 H57       -11.6528    3.5291   50.3394 H       1  ZINC000462219577    0.1200
     58 H58       -10.1258    3.4605   52.2700 H       1  ZINC000462219577    0.1200
     59 H59        -8.6531    5.8035   53.5338 H       1  ZINC000462219577    0.0800
     60 H60        -7.3915    6.4748   52.4707 H       1  ZINC000462219577    0.0900
     61 H61        -8.6571    2.0564   57.3854 H       1  ZINC000462219577    0.1500
@<TRIPOS>BOND
     1     1     2    1
     2     1    35    1
     3     1    36    1
     4     1    37    1
     5     2    34    1
     6     2     3    2
     7     3     4    1
     8     4     5    1
     9     4    11    1
    10     5    10   ar
    11     5     6   ar
    12     6     7   ar
    13     6    38    1
    14     7     8   ar
    15     7    39    1
    16     8     9   ar
    17     8    40    1
    18     9    10   ar
    19     9    41    1
    20    10    42    1
    21    11    12    1
    22    11    34    2
    23    12    13    1
    24    12    43    1
    25    12    44    1
    26    13    14    1
    27    13    15    1
    28    13    16    1
    29    15    45    1
    30    15    46    1
    31    15    47    1
    32    16    17   am
    33    16    48    1
    34    17    18    2
    35    17    19   am
    36    19    20    1
    37    19    49    1
    38    20    21    1
    39    20    33    1
    40    20    22    1
    41    22    23    1
    42    22    50    1
    43    22    51    1
    44    23    24    1
    45    23    52    1
    46    23    53    1
    47    24    25    1
    48    25    26    1
    49    25    27    1
    50    25    33    1
    51    27    32   ar
    52    27    28   ar
    53    28    29   ar
    54    28    54    1
    55    29    30   ar
    56    29    55    1
    57    30    31   ar
    58    30    56    1
    59    31    32   ar
    60    31    57    1
    61    32    58    1
    62    33    59    1
    63    33    60    1
    64    34    61    1
@<TRIPOS>SUBSTRUCTURE
     1 ZINC000462219577        1 TEMP              0 ****  ****    0 ROOT


##########                                Name:    ZINC001023407238
##########                DOCK_Rotatable_Bonds:                   7
##########                         Heavy_Atoms:                  25
##########                    Molecular_Weight:             349.387
##########                DOCK_Rotatable_Bonds:                   7
##########                       Formal_Charge:          -0.0300008
##########                     HBond_Acceptors:                   8
##########                        HBond_Donors:                   2
##########                         Heavy_Atoms:                  25
##########                          Grid_Score:          -19.558182
##########                     Grid_vdw_energy:          -16.602367
##########                      Grid_es_energy:           -2.955815
##########           Internal_energy_repulsive:           10.909169

@<TRIPOS>MOLECULE
ZINC001023407238
 48 50 1 0 0
SMALL
USER_CHARGES


@<TRIPOS>ATOM
      1 C1        -15.2882   -1.7069   56.9243 C.3     1  ZINC001023407238   -0.0900
      2 C2        -15.1171   -1.5044   58.4078 C.2     1  ZINC001023407238   -0.1100
      3 C3        -15.2505   -0.3155   59.0930 C.2     1  ZINC001023407238   -0.0500
      4 C4        -15.5858    0.9882   58.5103 C.2     1  ZINC001023407238    0.6100
      5 O5        -16.7076    1.4419   58.6394 O.2     1  ZINC001023407238   -0.5100
      6 N6        -14.6516    1.6834   57.8319 N.am    1  ZINC001023407238   -0.6100
      7 C7        -14.8511    2.9957   57.1998 C.3     1  ZINC001023407238    0.0800
      8 C8        -13.5051    3.4095   56.5683 C.3     1  ZINC001023407238    0.0900
      9 H9        -13.4795    3.1492   55.5101 H       1  ZINC001023407238    0.0800
     10 O10       -13.2703    4.8074   56.7491 O.3     1  ZINC001023407238   -0.5500
     11 C11       -12.4738    2.5681   57.3657 C.3     1  ZINC001023407238    0.1400
     12 H12       -12.2247    3.0493   58.3115 H       1  ZINC001023407238    0.1200
     13 N13       -11.2681    2.3238   56.5704 N.am    1  ZINC001023407238   -0.7200
     14 C14       -10.0510    2.4519   57.1349 C.2     1  ZINC001023407238    0.5200
     15 O15        -9.9540    2.7708   58.3011 O.2     1  ZINC001023407238   -0.5300
     16 C16        -8.8106    2.1989   56.3172 C.3     1  ZINC001023407238   -0.1300
     17 C17        -9.2088    1.6805   54.9339 C.3     1  ZINC001023407238   -0.1100
     18 H18        -9.9290    2.3496   54.4630 H       1  ZINC001023407238    0.1100
     19 C19        -7.9640    1.4920   54.0372 C.3     1  ZINC001023407238    0.0600
     20 O20        -8.2737    0.3200   53.2265 O.3     1  ZINC001023407238   -0.3500
     21 C21        -9.0681   -0.5131   53.9135 C.2     1  ZINC001023407238    0.4800
     22 O22        -9.2065   -1.6907   53.6807 O.2     1  ZINC001023407238   -0.4600
     23 C23        -9.7702    0.2440   55.0252 C.3     1  ZINC001023407238   -0.1800
     24 C24       -13.2586    1.2568   57.6061 C.3     1  ZINC001023407238    0.1000
     25 N25       -15.0121   -0.5748   60.4238 N.pl3   1  ZINC001023407238   -0.4200
     26 C26       -15.0499    0.4112   61.5065 C.3     1  ZINC001023407238    0.0700
     27 C27       -14.7365   -1.8942   60.5654 C.2     1  ZINC001023407238    0.0100
     28 C28       -14.7993   -2.4879   59.3495 C.2     1  ZINC001023407238   -0.2000
     29 H29       -16.3297   -1.9445   56.7077 H       1  ZINC001023407238    0.0600
     30 H30       -15.0066   -0.7947   56.3982 H       1  ZINC001023407238    0.0600
     31 H31       -14.6519   -2.5281   56.5940 H       1  ZINC001023407238    0.0700
     32 H32       -15.6162    2.9224   56.4269 H       1  ZINC001023407238    0.0800
     33 H33       -15.1487    3.7276   57.9508 H       1  ZINC001023407238    0.0800
     34 H34       -13.8664    5.2274   57.3842 H       1  ZINC001023407238    0.3900
     35 H35       -11.3456    2.0698   55.6374 H       1  ZINC001023407238    0.4100
     36 H36        -8.2505    3.1277   56.2098 H       1  ZINC001023407238    0.1000
     37 H37        -8.1900    1.4563   56.8188 H       1  ZINC001023407238    0.1100
     38 H38        -7.8165    2.3658   53.4024 H       1  ZINC001023407238    0.1200
     39 H39        -7.0793    1.3100   54.6473 H       1  ZINC001023407238    0.0800
     40 H40        -9.5293   -0.1944   55.9937 H       1  ZINC001023407238    0.1100
     41 H41       -10.8482    0.2412   54.8641 H       1  ZINC001023407238    0.1200
     42 H42       -12.8704    0.7376   58.4825 H       1  ZINC001023407238    0.0900
     43 H43       -13.2019    0.6142   56.7275 H       1  ZINC001023407238    0.0800
     44 H44       -16.0351    0.4011   61.9729 H       1  ZINC001023407238    0.0800
     45 H45       -14.2931    0.1629   62.2507 H       1  ZINC001023407238    0.0900
     46 H46       -14.8498    1.4032   61.1017 H       1  ZINC001023407238    0.0800
     47 H47       -14.5080   -2.3918   61.4963 H       1  ZINC001023407238    0.1700
     48 H48       -14.6273   -3.5340   59.1430 H       1  ZINC001023407238    0.1400
@<TRIPOS>BOND
     1     1     2    1
     2     1    29    1
     3     1    30    1
     4     1    31    1
     5     2    28    1
     6     2     3    2
     7     3     4    1
     8     3    25    1
     9     4     5    2
    10     4     6   am
    11     6    24    1
    12     6     7    1
    13     7     8    1
    14     7    32    1
    15     7    33    1
    16     8     9    1
    17     8    10    1
    18     8    11    1
    19    10    34    1
    20    11    12    1
    21    11    13    1
    22    11    24    1
    23    13    14   am
    24    13    35    1
    25    14    15    2
    26    14    16    1
    27    16    17    1
    28    16    36    1
    29    16    37    1
    30    17    18    1
    31    17    23    1
    32    17    19    1
    33    19    20    1
    34    19    38    1
    35    19    39    1
    36    20    21    1
    37    21    22    2
    38    21    23    1
    39    23    40    1
    40    23    41    1
    41    24    42    1
    42    24    43    1
    43    25    26    1
    44    25    27    1
    45    26    44    1
    46    26    45    1
    47    26    46    1
    48    27    28    2
    49    27    47    1
    50    28    48    1
@<TRIPOS>SUBSTRUCTURE
     1 ZINC001023407238        1 TEMP              0 ****  ****    0 ROOT

