
##########                                Name:     oleObject79.pdb
##########                DOCK_Rotatable_Bonds:                  12
##########                         Heavy_Atoms:                  53
##########                    Molecular_Weight:             725.376
##########                DOCK_Rotatable_Bonds:                  12
##########                       Formal_Charge:          0.00050066
##########                     HBond_Acceptors:                   8
##########                        HBond_Donors:                   4
##########                         Heavy_Atoms:                  53
##########                          Grid_Score:          -43.695427
##########                     Grid_vdw_energy:          -43.427670
##########                      Grid_es_energy:           -0.267759
##########           Internal_energy_repulsive:           31.275103

@<TRIPOS>MOLECULE
oleObject79.pdb
 102 108 1 0 0
SMALL
NO_CHARGES


@<TRIPOS>ATOM
      1 C         -18.5208    0.7002   58.1459 C.ar    1  UNL        -0.0620
      2 C         -18.6195   -0.6915   58.2805 C.ar    1  UNL        -0.0590
      3 C         -17.6951   -1.5452   57.6472 C.ar    1  UNL        -0.0456
      4 C         -16.6475   -0.9915   56.8643 C.ar    1  UNL        -0.0185
      5 C         -16.5652    0.4125   56.7414 C.ar    1  UNL        -0.0565
      6 C         -17.4920    1.2527   57.3746 C.ar    1  UNL        -0.0619
      7 C         -15.5745   -1.8719   56.1922 C.3     1  UNL         0.0931
      8 C         -15.0053   -1.3150   54.8739 C.ar    1  UNL         0.0683
      9 C         -15.7726   -1.3141   53.6808 C.ar    1  UNL        -0.0272
     10 C         -15.1923   -0.7902   52.5102 C.ar    1  UNL        -0.0559
     11 C         -13.8845   -0.2874   52.5608 C.ar    1  UNL        -0.0435
     12 C         -13.1979   -0.3250   53.7829 C.ar    1  UNL         0.0272
     13 N         -13.7438   -0.8251   54.9070 N.ar    1  UNL        -0.2587
     14 C         -17.1958   -1.8600   53.6264 C.3     1  UNL        -0.0379
     15 N         -14.5452   -2.3151   57.1738 N.am    1  UNL        -0.2918
     16 C         -13.8764   -1.3806   57.9675 C.2     1  UNL         0.2179
     17 O         -13.8826   -0.2003   57.6596 O.2     1  UNL        -0.2772
     18 C         -12.8217   -1.9401   58.9600 C.3     1  UNL         0.0361
     19 C         -12.6249   -1.0422   60.2150 C.3     1  UNL        -0.0412
     20 C         -11.8416    0.2694   59.9313 C.3     1  UNL        -0.0453
     21 C         -10.4951    0.0642   59.1751 C.3     1  UNL        -0.0139
     22 C         -10.0002    1.4471   58.6678 C.3     1  UNL         0.0171
     23 N          -8.6724    1.3348   58.0306 N.pl3   1  UNL        -0.3290
     24 C          -7.6112    0.8501   58.9348 C.3     1  UNL         0.0115
     25 C          -7.9928   -0.5238   59.5348 C.3     1  UNL        -0.0368
     26 C          -9.4159   -0.5114   60.1473 C.3     1  UNL        -0.0446
     27 C          -8.4185    1.8652   56.7614 C.ar    1  UNL         0.0476
     28 C          -8.4207    1.0025   55.6479 C.ar    1  UNL        -0.0375
     29 C          -8.1418    1.4847   54.3599 C.ar    1  UNL        -0.0388
     30 C          -7.8316    2.8381   54.1568 C.ar    1  UNL         0.0318
     31 C          -7.8444    3.7102   55.2607 C.ar    1  UNL        -0.0202
     32 C          -8.1278    3.2343   56.5522 C.ar    1  UNL         0.0636
     33 CL         -8.0344    4.3930   57.8674 Cl      1  UNL        -0.0822
     34 N          -7.5597    3.2808   52.8639 N.pl3   1  UNL        -0.3149
     35 C          -6.4242    3.1590   52.0647 C.ar    1  UNL         0.0302
     36 C          -5.1284    3.0850   52.6083 C.ar    1  UNL        -0.0402
     37 C          -4.0103    2.9357   51.7724 C.ar    1  UNL        -0.0525
     38 C          -4.1491    2.8475   50.3650 C.ar    1  UNL        -0.0182
     39 C          -5.4625    2.9051   49.8361 C.ar    1  UNL        -0.0525
     40 C          -6.5807    3.0494   50.6736 C.ar    1  UNL        -0.0402
     41 C          -2.9545    2.6884   49.4697 C.ar    1  UNL        -0.0177
     42 C          -1.6800    3.1819   49.8488 C.ar    1  UNL        -0.0439
     43 C          -0.5470    3.0434   49.0175 C.ar    1  UNL         0.0111
     44 C          -0.6967    2.3945   47.7744 C.ar    1  UNL        -0.0518
     45 C          -1.9459    1.8965   47.3775 C.ar    1  UNL        -0.0609
     46 C          -3.0614    2.0405   48.2150 C.ar    1  UNL        -0.0543
     47 C           0.6987    3.5360   49.4195 C.2     1  UNL         0.1014
     48 N           1.7386    3.4608   48.6730 N.3     1  UNL        -0.2892
     49 N           0.8566    4.1086   50.6207 N.3     1  UNL        -0.2870
     50 C         -10.7296   -0.8641   57.9428 C.3     1  UNL        -0.0453
     51 C         -11.4449   -2.1872   58.2902 C.3     1  UNL        -0.0412
     52 C         -14.2832   -3.7657   57.2987 C.3     1  UNL         0.0037
     53 C         -17.8501   -3.0480   57.8553 C.3     1  UNL        -0.0394
     54 H         -19.2366    1.3494   58.6408 H       1  UNL         0.0623
     55 H         -19.4178   -1.1089   58.8875 H       1  UNL         0.0626
     56 H         -15.7740    0.8611   56.1501 H       1  UNL         0.0627
     57 H         -17.4097    2.3305   57.2692 H       1  UNL         0.0623
     58 H         -16.0843   -2.7829   55.8751 H       1  UNL         0.0626
     59 H         -15.7457   -0.7715   51.5755 H       1  UNL         0.0627
     60 H         -13.4130    0.1238   51.6731 H       1  UNL         0.0639
     61 H         -12.1811    0.0569   53.8663 H       1  UNL         0.0840
     62 H         -17.2227   -2.9248   53.8878 H       1  UNL         0.0280
     63 H         -17.6286   -1.7605   52.6233 H       1  UNL         0.0280
     64 H         -17.8549   -1.3227   54.3194 H       1  UNL         0.0280
     65 H         -13.2070   -2.9042   59.3134 H       1  UNL         0.0401
     66 H         -12.0816   -1.6174   60.9756 H       1  UNL         0.0275
     67 H         -13.6003   -0.8006   60.6565 H       1  UNL         0.0275
     68 H         -11.6623    0.7926   60.8794 H       1  UNL         0.0273
     69 H         -12.4776    0.9434   59.3456 H       1  UNL         0.0273
     70 H          -9.9399    2.1471   59.5113 H       1  UNL         0.0474
     71 H         -10.7314    1.8502   57.9548 H       1  UNL         0.0474
     72 H          -7.4800    1.5714   59.7516 H       1  UNL         0.0468
     73 H          -6.6514    0.7721   58.4095 H       1  UNL         0.0468
     74 H          -7.2624   -0.8026   60.3045 H       1  UNL         0.0283
     75 H          -7.9321   -1.2945   58.7575 H       1  UNL         0.0283
     76 H          -9.3860    0.1090   61.0526 H       1  UNL         0.0273
     77 H          -9.6794   -1.5217   60.4810 H       1  UNL         0.0273
     78 H          -8.6481   -0.0516   55.7781 H       1  UNL         0.0644
     79 H          -8.1514    0.7981   53.5180 H       1  UNL         0.0643
     80 H          -7.6375    4.7669   55.1227 H       1  UNL         0.0659
     81 H          -8.3310    3.7601   52.4175 H       1  UNL         0.1528
     82 H          -4.9797    3.1235   53.6819 H       1  UNL         0.0643
     83 H          -3.0257    2.9005   52.2279 H       1  UNL         0.0630
     84 H          -5.6240    2.8160   48.7665 H       1  UNL         0.0630
     85 H          -7.5748    3.0822   50.2367 H       1  UNL         0.0643
     86 H          -1.5703    3.6742   50.8101 H       1  UNL         0.0637
     87 H           0.1562    2.2610   47.1146 H       1  UNL         0.0630
     88 H          -2.0503    1.3984   46.4177 H       1  UNL         0.0623
     89 H          -4.0200    1.6610   47.8751 H       1  UNL         0.0629
     90 H           2.3344    4.2817   48.7998 H       1  UNL         0.1889
     91 H           0.7123    5.1109   50.7282 H       1  UNL         0.1258
     92 H           0.4697    3.6552   51.4465 H       1  UNL         0.1258
     93 H          -9.7872   -1.0927   57.4328 H       1  UNL         0.0273
     94 H         -11.3395   -0.3249   57.2089 H       1  UNL         0.0273
     95 H         -10.8150   -2.7803   58.9639 H       1  UNL         0.0275
     96 H         -11.5518   -2.7907   57.3829 H       1  UNL         0.0275
     97 H         -13.2118   -3.9768   57.2079 H       1  UNL         0.0433
     98 H         -14.8028   -4.3365   56.5207 H       1  UNL         0.0433
     99 H         -14.6315   -4.1132   58.2792 H       1  UNL         0.0433
    100 H         -18.7536   -3.2888   58.4293 H       1  UNL         0.0280
    101 H         -16.9949   -3.4581   58.4071 H       1  UNL         0.0280
    102 H         -17.9249   -3.5747   56.8957 H       1  UNL         0.0280
@<TRIPOS>BOND
     1     1     2   ar
     2     1     6   ar
     3     1    54    1
     4     2     3   ar
     5     2    55    1
     6     3     4   ar
     7     3    53    1
     8     4     5   ar
     9     4     7    1
    10     5     6   ar
    11     5    56    1
    12     6    57    1
    13     7     8    1
    14     7    15    1
    15     7    58    1
    16     8     9   ar
    17     8    13   ar
    18     9    10   ar
    19     9    14    1
    20    10    11   ar
    21    10    59    1
    22    11    12   ar
    23    11    60    1
    24    12    13   ar
    25    12    61    1
    26    14    62    1
    27    14    63    1
    28    14    64    1
    29    15    16   am
    30    15    52    1
    31    16    17    2
    32    16    18    1
    33    18    19    1
    34    18    51    1
    35    18    65    1
    36    19    20    1
    37    19    66    1
    38    19    67    1
    39    20    21    1
    40    20    68    1
    41    20    69    1
    42    21    22    1
    43    21    26    1
    44    21    50    1
    45    22    23    1
    46    22    70    1
    47    22    71    1
    48    23    24    1
    49    23    27    1
    50    24    25    1
    51    24    72    1
    52    24    73    1
    53    25    26    1
    54    25    74    1
    55    25    75    1
    56    26    76    1
    57    26    77    1
    58    27    28   ar
    59    27    32   ar
    60    28    29   ar
    61    28    78    1
    62    29    30   ar
    63    29    79    1
    64    30    31   ar
    65    30    34    1
    66    31    32   ar
    67    31    80    1
    68    32    33    1
    69    34    35    1
    70    34    81    1
    71    35    36   ar
    72    35    40   ar
    73    36    37   ar
    74    36    82    1
    75    37    38   ar
    76    37    83    1
    77    38    39   ar
    78    38    41    1
    79    39    40   ar
    80    39    84    1
    81    40    85    1
    82    41    42   ar
    83    41    46   ar
    84    42    43   ar
    85    42    86    1
    86    43    44   ar
    87    43    47    1
    88    44    45   ar
    89    44    87    1
    90    45    46   ar
    91    45    88    1
    92    46    89    1
    93    47    48    1
    94    47    49    1
    95    48    90    1
    96    49    91    1
    97    49    92    1
    98    50    51    1
    99    50    93    1
   100    50    94    1
   101    51    95    1
   102    51    96    1
   103    52    97    1
   104    52    98    1
   105    52    99    1
   106    53   100    1
   107    53   101    1
   108    53   102    1
@<TRIPOS>SUBSTRUCTURE
     1 UNL         1 TEMP              0 ****  ****    0 ROOT


##########                                Name:     oleObject80.pdb
##########                DOCK_Rotatable_Bonds:                  14
##########                         Heavy_Atoms:                  51
##########                    Molecular_Weight:             703.283
##########                DOCK_Rotatable_Bonds:                  14
##########                       Formal_Charge:         0.000299793
##########                     HBond_Acceptors:                  10
##########                        HBond_Donors:                   3
##########                         Heavy_Atoms:                  51
##########                          Grid_Score:          -40.388885
##########                     Grid_vdw_energy:          -41.038353
##########                      Grid_es_energy:            0.649469
##########           Internal_energy_repulsive:           28.454481

@<TRIPOS>MOLECULE
oleObject80.pdb
 94 99 1 0 0
SMALL
NO_CHARGES


@<TRIPOS>ATOM
      1 C          -9.6924    5.4832   60.0990 C.ar    1  UNL        -0.0620
      2 C          -8.7763    4.8176   60.9257 C.ar    1  UNL        -0.0590
      3 C          -9.1415    3.6368   61.6010 C.ar    1  UNL        -0.0456
      4 C         -10.4506    3.1139   61.4455 C.ar    1  UNL        -0.0185
      5 C         -11.3610    3.7956   60.6073 C.ar    1  UNL        -0.0565
      6 C         -10.9858    4.9702   59.9391 C.ar    1  UNL        -0.0619
      7 C         -10.8806    1.8302   62.1778 C.3     1  UNL         0.0931
      8 C         -12.3540    1.8322   62.6227 C.ar    1  UNL         0.0683
      9 C         -12.7854    2.5635   63.7584 C.ar    1  UNL        -0.0272
     10 C         -14.1474    2.5142   64.1102 C.ar    1  UNL        -0.0559
     11 C         -15.0287    1.7532   63.3289 C.ar    1  UNL        -0.0435
     12 C         -14.5191    1.0677   62.2167 C.ar    1  UNL         0.0272
     13 N         -13.2185    1.1085   61.8722 N.ar    1  UNL        -0.2587
     14 C         -11.8274    3.3967   64.6028 C.3     1  UNL        -0.0379
     15 N         -10.4697    0.5718   61.4908 N.am    1  UNL        -0.2918
     16 C         -10.9697    0.2595   60.2215 C.2     1  UNL         0.2180
     17 O         -11.5275    1.1089   59.5459 O.2     1  UNL        -0.2772
     18 C         -10.4910   -1.0672   59.5803 C.3     1  UNL         0.0385
     19 C          -9.1918   -0.8789   58.7588 C.3     1  UNL        -0.0289
     20 C          -9.4521   -0.1331   57.4340 C.3     1  UNL        -0.0010
     21 N         -10.4589   -0.8300   56.6052 N.4     1  UNL        -0.3010
     22 C         -11.7465   -1.0409   57.3096 C.3     1  UNL        -0.0010
     23 C         -11.5695   -1.7330   58.6849 C.3     1  UNL        -0.0289
     24 C         -10.5931   -0.1995   55.2732 C.3     1  UNL         0.0222
     25 C          -9.3127   -0.2907   54.4177 C.3     1  UNL         0.0661
     26 O          -9.6389    0.1594   53.0907 O.3     1  UNL        -0.3432
     27 C          -8.6988    0.6140   52.1858 C.ar    1  UNL         0.0937
     28 C          -7.7062   -0.2305   51.6486 C.ar    1  UNL        -0.0284
     29 C          -6.7687    0.2739   50.7324 C.ar    1  UNL        -0.0381
     30 C          -6.8127    1.6188   50.3266 C.ar    1  UNL         0.0319
     31 C          -7.7913    2.4664   50.8810 C.ar    1  UNL        -0.0194
     32 C          -8.7304    1.9677   51.7988 C.ar    1  UNL         0.0727
     33 CL         -9.9316    3.0627   52.4576 Cl      1  UNL        -0.0814
     34 N          -5.8520    2.0807   49.4289 N.pl3   1  UNL        -0.3136
     35 C          -4.4839    2.3099   49.5721 C.ar    1  UNL         0.0489
     36 C          -3.9406    2.4857   50.8570 C.ar    1  UNL         0.0488
     37 N          -2.6278    2.6924   51.0825 N.ar    1  UNL        -0.2543
     38 C          -1.7606    2.7231   50.0467 C.ar    1  UNL         0.0703
     39 C          -2.2271    2.5357   48.7195 C.ar    1  UNL        -0.0339
     40 C          -3.5946    2.3230   48.4820 C.ar    1  UNL        -0.0371
     41 C          -0.3100    2.9527   50.3780 C.ar    1  UNL         0.0009
     42 C           0.0845    3.6396   51.5558 C.ar    1  UNL        -0.0402
     43 C           1.4400    3.8616   51.8772 C.ar    1  UNL         0.0375
     44 C           2.4329    3.3849   50.9963 C.ar    1  UNL        -0.0496
     45 C           2.0721    2.7077   49.8232 C.ar    1  UNL        -0.0608
     46 C           0.7203    2.4960   49.5167 C.ar    1  UNL        -0.0528
     47 C           1.7893    4.6014   53.1460 C.2     1  UNL         0.2403
     48 O           0.9429    4.9793   53.9361 O.2     1  UNL        -0.2722
     49 N           3.1238    4.8436   53.3947 N.am    1  UNL        -0.3251
     50 C          -9.4605   -0.2718   62.1699 C.3     1  UNL         0.0037
     51 C          -8.1012    2.9535   62.4840 C.3     1  UNL        -0.0394
     52 H          -9.3993    6.3927   59.5824 H       1  UNL         0.0623
     53 H          -7.7753    5.2238   61.0406 H       1  UNL         0.0626
     54 H         -12.3670    3.4158   60.4592 H       1  UNL         0.0627
     55 H         -11.6977    5.4809   59.2969 H       1  UNL         0.0623
     56 H         -10.3169    1.8511   63.1139 H       1  UNL         0.0626
     57 H         -14.5182    3.0570   64.9751 H       1  UNL         0.0627
     58 H         -16.0842    1.6975   63.5780 H       1  UNL         0.0639
     59 H         -15.1703    0.4677   61.5824 H       1  UNL         0.0840
     60 H         -11.1127    2.7556   65.1339 H       1  UNL         0.0280
     61 H         -12.3623    3.9873   65.3570 H       1  UNL         0.0280
     62 H         -11.2588    4.0999   63.9819 H       1  UNL         0.0280
     63 H         -10.2858   -1.7726   60.3939 H       1  UNL         0.0402
     64 H          -8.7658   -1.8644   58.5301 H       1  UNL         0.0288
     65 H          -8.4352   -0.3420   59.3410 H       1  UNL         0.0288
     66 H          -8.5044   -0.0573   56.8854 H       1  UNL         0.0431
     67 H          -9.7909    0.8883   57.6550 H       1  UNL         0.0431
     68 H         -12.4140   -1.6662   56.7053 H       1  UNL         0.0431
     69 H         -12.2464   -0.0744   57.4496 H       1  UNL         0.0431
     70 H         -11.2782   -2.7764   58.5069 H       1  UNL         0.0288
     71 H         -12.5311   -1.7650   59.2129 H       1  UNL         0.0288
     72 H         -10.8334    0.8641   55.4008 H       1  UNL         0.0455
     73 H         -11.4239   -0.6612   54.7237 H       1  UNL         0.0455
     74 H          -8.9529   -1.3262   54.3842 H       1  UNL         0.0586
     75 H          -8.5351    0.3481   54.8553 H       1  UNL         0.0586
     76 H          -7.6490   -1.2760   51.9333 H       1  UNL         0.0652
     77 H          -6.0086   -0.3886   50.3275 H       1  UNL         0.0644
     78 H          -7.8172    3.5199   50.6209 H       1  UNL         0.0659
     79 H          -6.2137    2.2964   48.5086 H       1  UNL         0.1528
     80 H          -4.5805    2.4698   51.7382 H       1  UNL         0.0861
     81 H          -1.5465    2.5623   47.8757 H       1  UNL         0.0646
     82 H          -3.9451    2.1539   47.4687 H       1  UNL         0.0644
     83 H          -0.6740    4.0253   52.2280 H       1  UNL         0.0638
     84 H           3.4872    3.5342   51.2070 H       1  UNL         0.0631
     85 H           2.8424    2.3441   49.1488 H       1  UNL         0.0623
     86 H           0.4743    1.9620   48.6033 H       1  UNL         0.0630
     87 H           3.4016    5.3359   54.2330 H       1  UNL         0.1458
     88 H           3.8137    4.5205   52.7284 H       1  UNL         0.1458
     89 H          -9.2492    0.0821   63.1844 H       1  UNL         0.0433
     90 H          -8.5184   -0.2589   61.6096 H       1  UNL         0.0433
     91 H          -9.8279   -1.3038   62.2319 H       1  UNL         0.0433
     92 H          -7.1361    3.4740   62.4516 H       1  UNL         0.0280
     93 H          -7.9218    1.9210   62.1606 H       1  UNL         0.0280
     94 H          -8.4228    2.9316   63.5326 H       1  UNL         0.0280
@<TRIPOS>BOND
     1     1     2   ar
     2     1     6   ar
     3     1    52    1
     4     2     3   ar
     5     2    53    1
     6     3     4   ar
     7     3    51    1
     8     4     5   ar
     9     4     7    1
    10     5     6   ar
    11     5    54    1
    12     6    55    1
    13     7     8    1
    14     7    15    1
    15     7    56    1
    16     8     9   ar
    17     8    13   ar
    18     9    10   ar
    19     9    14    1
    20    10    11   ar
    21    10    57    1
    22    11    12   ar
    23    11    58    1
    24    12    13   ar
    25    12    59    1
    26    14    60    1
    27    14    61    1
    28    14    62    1
    29    15    16   am
    30    15    50    1
    31    16    17    2
    32    16    18    1
    33    18    19    1
    34    18    23    1
    35    18    63    1
    36    19    20    1
    37    19    64    1
    38    19    65    1
    39    20    21    1
    40    20    66    1
    41    20    67    1
    42    21    22    1
    43    21    24    1
    44    22    23    1
    45    22    68    1
    46    22    69    1
    47    23    70    1
    48    23    71    1
    49    24    25    1
    50    24    72    1
    51    24    73    1
    52    25    26    1
    53    25    74    1
    54    25    75    1
    55    26    27    1
    56    27    28   ar
    57    27    32   ar
    58    28    29   ar
    59    28    76    1
    60    29    30   ar
    61    29    77    1
    62    30    31   ar
    63    30    34    1
    64    31    32   ar
    65    31    78    1
    66    32    33    1
    67    34    35    1
    68    34    79    1
    69    35    36   ar
    70    35    40   ar
    71    36    37   ar
    72    36    80    1
    73    37    38   ar
    74    38    39   ar
    75    38    41    1
    76    39    40   ar
    77    39    81    1
    78    40    82    1
    79    41    42   ar
    80    41    46   ar
    81    42    43   ar
    82    42    83    1
    83    43    44   ar
    84    43    47    1
    85    44    45   ar
    86    44    84    1
    87    45    46   ar
    88    45    85    1
    89    46    86    1
    90    47    48    2
    91    47    49   am
    92    49    87    1
    93    49    88    1
    94    50    89    1
    95    50    90    1
    96    50    91    1
    97    51    92    1
    98    51    93    1
    99    51    94    1
@<TRIPOS>SUBSTRUCTURE
     1 UNL         1 TEMP              0 ****  ****    0 ROOT


##########                                Name:    ZINC000008416770
##########                DOCK_Rotatable_Bonds:                  13
##########                         Heavy_Atoms:                  30
##########                    Molecular_Weight:             412.442
##########                DOCK_Rotatable_Bonds:                  13
##########                       Formal_Charge:          -0.0199998
##########                     HBond_Acceptors:                   8
##########                        HBond_Donors:                   2
##########                         Heavy_Atoms:                  30
##########                          Grid_Score:          -40.326736
##########                     Grid_vdw_energy:          -38.550667
##########                      Grid_es_energy:           -1.776071
##########           Internal_energy_repulsive:            8.439795

@<TRIPOS>MOLECULE
ZINC000008416770
 54 55 1 0 0
SMALL
USER_CHARGES


@<TRIPOS>ATOM
      1 C1        -15.1995   -4.0696   58.8318 C.3     1  ZINC000008416770   -0.1500
      2 C2        -14.5538   -2.6960   59.0247 C.3     1  ZINC000008416770    0.0600
      3 O3        -13.2528   -2.8563   59.6492 O.3     1  ZINC000008416770   -0.3500
      4 C4        -12.3583   -1.8659   59.4622 C.2     1  ZINC000008416770    0.5100
      5 O5        -12.0086   -1.1779   60.4006 O.2     1  ZINC000008416770   -0.5100
      6 C6        -11.8040   -1.6170   58.1184 C.ar    1  ZINC000008416770   -0.1500
      7 C7        -12.0515   -0.4022   57.4723 C.ar    1  ZINC000008416770   -0.0400
      8 C8        -11.5322   -0.1732   56.2183 C.ar    1  ZINC000008416770   -0.1400
      9 C9        -10.7616   -1.1491   55.5938 C.ar    1  ZINC000008416770    0.1800
     10 N10       -10.2373   -0.9137   54.3237 N.am    1  ZINC000008416770   -0.6700
     11 C11        -9.3968    0.1205   54.1227 C.2     1  ZINC000008416770    0.5200
     12 O12        -9.0966    0.8464   55.0467 O.2     1  ZINC000008416770   -0.5100
     13 C13        -8.8300    0.3749   52.7497 C.3     1  ZINC000008416770   -0.1300
     14 C14        -7.3018    0.3348   52.8134 C.3     1  ZINC000008416770   -0.1000
     15 C15        -6.7370    0.4860   51.4245 C.2     1  ZINC000008416770    0.4700
     16 O16        -6.5548   -0.4907   50.7368 O.2     1  ZINC000008416770   -0.5100
     17 O17        -6.4363    1.7055   50.9513 O.3     1  ZINC000008416770   -0.3300
     18 C18        -6.2441    1.8274   49.5172 C.3     1  ZINC000008416770    0.0500
     19 C19        -4.7836    1.6528   49.1895 C.2     1  ZINC000008416770    0.5100
     20 O20        -4.3047    0.5401   49.1275 O.2     1  ZINC000008416770   -0.4900
     21 N21        -4.0095    2.7330   48.9652 N.am    1  ZINC000008416770   -0.6700
     22 C22        -2.6534    2.5709   48.6609 C.ar    1  ZINC000008416770    0.1400
     23 C23        -2.2715    2.1165   47.4054 C.ar    1  ZINC000008416770   -0.1400
     24 C24        -0.9320    1.9576   47.1082 C.ar    1  ZINC000008416770   -0.1000
     25 C25         0.0281    2.2500   48.0592 C.ar    1  ZINC000008416770   -0.1000
     26 C26         1.4887    2.0750   47.7316 C.3     1  ZINC000008416770   -0.1200
     27 C27        -0.3489    2.7030   49.3101 C.ar    1  ZINC000008416770   -0.1000
     28 C28        -1.6863    2.8695   49.6117 C.ar    1  ZINC000008416770   -0.1200
     29 C29       -10.5129   -2.3593   56.2341 C.ar    1  ZINC000008416770   -0.1600
     30 C30       -11.0250   -2.5932   57.4901 C.ar    1  ZINC000008416770   -0.0300
     31 H31       -14.5637   -4.6837   58.1941 H       1  ZINC000008416770    0.0700
     32 H32       -15.3189   -4.5542   59.8008 H       1  ZINC000008416770    0.0700
     33 H33       -16.1762   -3.9492   58.3632 H       1  ZINC000008416770    0.0800
     34 H34       -14.4345   -2.2113   58.0558 H       1  ZINC000008416770    0.0700
     35 H35       -15.1896   -2.0819   59.6624 H       1  ZINC000008416770    0.0700
     36 H36       -12.6498    0.3555   57.9564 H       1  ZINC000008416770    0.1400
     37 H37       -11.7232    0.7648   55.7185 H       1  ZINC000008416770    0.1400
     38 H38       -10.4773   -1.4943   53.5846 H       1  ZINC000008416770    0.4200
     39 H39        -9.1852   -0.3925   52.0620 H       1  ZINC000008416770    0.1100
     40 H40        -9.1534    1.3551   52.3990 H       1  ZINC000008416770    0.1100
     41 H41        -6.9429    1.1496   53.4422 H       1  ZINC000008416770    0.1200
     42 H42        -6.9807   -0.6178   53.2346 H       1  ZINC000008416770    0.1200
     43 H43        -6.8255    1.0600   49.0063 H       1  ZINC000008416770    0.1100
     44 H44        -6.5749    2.8127   49.1888 H       1  ZINC000008416770    0.1100
     45 H45        -4.3924    3.6228   49.0147 H       1  ZINC000008416770    0.4100
     46 H46        -3.0210    1.8873   46.6624 H       1  ZINC000008416770    0.1300
     47 H47        -0.6344    1.6043   46.1320 H       1  ZINC000008416770    0.1300
     48 H48         1.8811    3.0022   47.3140 H       1  ZINC000008416770    0.0700
     49 H49         2.0373    1.8246   48.6397 H       1  ZINC000008416770    0.0700
     50 H50         1.6042    1.2714   47.0042 H       1  ZINC000008416770    0.0700
     51 H51         0.4036    2.9305   50.0508 H       1  ZINC000008416770    0.1300
     52 H52        -1.9802    3.2234   50.5889 H       1  ZINC000008416770    0.1300
     53 H53        -9.9142   -3.1143   55.7465 H       1  ZINC000008416770    0.1400
     54 H54       -10.8316   -3.5327   57.9865 H       1  ZINC000008416770    0.1400
@<TRIPOS>BOND
     1     1     2    1
     2     1    31    1
     3     1    32    1
     4     1    33    1
     5     2     3    1
     6     2    34    1
     7     2    35    1
     8     3     4    1
     9     4     5    2
    10     4     6    1
    11     6    30   ar
    12     6     7   ar
    13     7     8   ar
    14     7    36    1
    15     8     9   ar
    16     8    37    1
    17     9    10    1
    18     9    29   ar
    19    10    11   am
    20    10    38    1
    21    11    12    2
    22    11    13    1
    23    13    14    1
    24    13    39    1
    25    13    40    1
    26    14    15    1
    27    14    41    1
    28    14    42    1
    29    15    16    2
    30    15    17    1
    31    17    18    1
    32    18    19    1
    33    18    43    1
    34    18    44    1
    35    19    20    2
    36    19    21   am
    37    21    22    1
    38    21    45    1
    39    22    28   ar
    40    22    23   ar
    41    23    24   ar
    42    23    46    1
    43    24    25   ar
    44    24    47    1
    45    25    26    1
    46    25    27   ar
    47    26    48    1
    48    26    49    1
    49    26    50    1
    50    27    28   ar
    51    27    51    1
    52    28    52    1
    53    29    30   ar
    54    29    53    1
    55    30    54    1
@<TRIPOS>SUBSTRUCTURE
     1 ZINC000008416770        1 TEMP              0 ****  ****    0 ROOT


##########                                Name:    ZINC001596273020
##########                DOCK_Rotatable_Bonds:                  11
##########                         Heavy_Atoms:                  25
##########                    Molecular_Weight:             355.478
##########                DOCK_Rotatable_Bonds:                  11
##########                       Formal_Charge:          -0.0499996
##########                     HBond_Acceptors:                   7
##########                        HBond_Donors:                   2
##########                         Heavy_Atoms:                  25
##########                          Grid_Score:          -40.250790
##########                     Grid_vdw_energy:          -34.100807
##########                      Grid_es_energy:           -6.149983
##########           Internal_energy_repulsive:           22.766584

@<TRIPOS>MOLECULE
ZINC001596273020
 58 59 1 0 0
SMALL
USER_CHARGES


@<TRIPOS>ATOM
      1 C1        -14.6569    0.6659   46.9053 C.3     1  ZINC001596273020   -0.1900
      2 C2        -13.4034    1.3363   47.4712 C.3     1  ZINC001596273020   -0.0200
      3 N3        -13.7943    2.3529   48.4569 N.4     1  ZINC001596273020   -0.3900
      4 H4        -14.3390    3.0703   48.0022 H       1  ZINC001596273020    0.4300
      5 C5        -14.5970    1.7256   49.5153 C.3     1  ZINC001596273020   -0.0100
      6 C6        -13.7936    0.5961   50.1628 C.3     1  ZINC001596273020   -0.1900
      7 C7        -12.5896    2.9524   49.0461 C.3     1  ZINC001596273020   -0.0100
      8 C8        -11.9735    3.9401   48.0532 C.3     1  ZINC001596273020    0.0300
      9 O9        -10.7737    4.4851   48.6060 O.3     1  ZINC001596273020   -0.3900
     10 C10       -10.1121    5.4197   47.7510 C.3     1  ZINC001596273020    0.0500
     11 C11        -8.9221    6.0339   48.4909 C.3     1  ZINC001596273020    0.1400
     12 N12        -7.9153    4.9993   48.7404 N.am    1  ZINC001596273020   -0.7500
     13 C13        -7.0736    5.1164   49.7865 C.2     1  ZINC001596273020    0.7200
     14 O14        -7.1487    6.0815   50.5222 O.2     1  ZINC001596273020   -0.6000
     15 N15        -6.1485    4.1638   50.0169 N.am    1  ZINC001596273020   -0.6300
     16 C16        -5.1487    4.1137   51.1123 C.3     1  ZINC001596273020    0.1100
     17 C17        -5.1586    2.6198   51.5474 C.3     1  ZINC001596273020   -0.0800
     18 H18        -4.1629    2.3270   51.8804 H       1  ZINC001596273020    0.1200
     19 C19        -6.1414    2.4852   52.6934 C.3     1  ZINC001596273020   -0.1000
     20 C20        -6.7936    1.1112   52.7552 C.3     1  ZINC001596273020   -0.1200
     21 C21        -7.5194    0.8691   51.4251 C.3     1  ZINC001596273020   -0.1200
     22 C22        -6.4573    0.7201   50.3405 C.3     1  ZINC001596273020   -0.0800
     23 C23        -5.5129    1.8742   50.2797 C.3     1  ZINC001596273020   -0.1400
     24 C24        -4.2104    1.3109   49.7726 C.2     1  ZINC001596273020    0.5000
     25 O25        -4.1687    0.1761   49.3287 O.co2   1  ZINC001596273020   -0.6900
     26 O26        -3.1982    1.9898   49.8064 O.co2   1  ZINC001596273020   -0.6900
     27 C27        -5.9045    2.9263   49.2365 C.3     1  ZINC001596273020    0.1600
     28 H28       -15.1530    0.0993   47.6933 H       1  ZINC001596273020    0.0800
     29 H29       -15.3359    1.4285   46.5237 H       1  ZINC001596273020    0.0800
     30 H30       -14.3749   -0.0075   46.0960 H       1  ZINC001596273020    0.1000
     31 H31       -12.7759    0.5861   47.9523 H       1  ZINC001596273020    0.1300
     32 H32       -12.8478    1.8098   46.6617 H       1  ZINC001596273020    0.1300
     33 H33       -14.8497    2.4707   50.2696 H       1  ZINC001596273020    0.1300
     34 H34       -15.5125    1.3198   49.0846 H       1  ZINC001596273020    0.1300
     35 H35       -13.6360   -0.2007   49.4359 H       1  ZINC001596273020    0.0800
     36 H36       -12.8295    0.9805   50.4955 H       1  ZINC001596273020    0.0800
     37 H37       -14.3432    0.2037   51.0186 H       1  ZINC001596273020    0.1000
     38 H38       -12.8565    3.4779   49.9630 H       1  ZINC001596273020    0.1400
     39 H39       -11.8677    2.1681   49.2738 H       1  ZINC001596273020    0.1400
     40 H40       -11.7421    3.4226   47.1222 H       1  ZINC001596273020    0.1000
     41 H41       -12.6808    4.7453   47.8552 H       1  ZINC001596273020    0.0700
     42 H42        -9.7584    4.9066   46.8567 H       1  ZINC001596273020    0.0700
     43 H43       -10.8090    6.2079   47.4661 H       1  ZINC001596273020    0.0700
     44 H44        -8.4858    6.8263   47.8827 H       1  ZINC001596273020    0.0900
     45 H45        -9.2597    6.4489   49.4406 H       1  ZINC001596273020    0.0700
     46 H46        -7.8546    4.2299   48.1528 H       1  ZINC001596273020    0.3900
     47 H47        -4.1630    4.3998   50.7454 H       1  ZINC001596273020    0.0700
     48 H48        -5.4528    4.7559   51.9388 H       1  ZINC001596273020    0.0600
     49 H49        -5.6153    2.6669   53.6306 H       1  ZINC001596273020    0.0500
     50 H50        -6.9203    3.2390   52.5785 H       1  ZINC001596273020    0.0400
     51 H51        -6.0300    0.3474   52.9024 H       1  ZINC001596273020    0.0700
     52 H52        -7.5096    1.0801   53.5764 H       1  ZINC001596273020    0.0500
     53 H53        -8.1134   -0.0426   51.4887 H       1  ZINC001596273020    0.0600
     54 H54        -8.1650    1.7170   51.1964 H       1  ZINC001596273020    0.0500
     55 H55        -5.8881   -0.1899   50.5308 H       1  ZINC001596273020    0.0600
     56 H56        -6.9542    0.6234   49.3752 H       1  ZINC001596273020    0.0600
     57 H57        -6.8083    2.6206   48.7095 H       1  ZINC001596273020    0.0700
     58 H58        -5.0880    3.0849   48.5319 H       1  ZINC001596273020    0.0700
@<TRIPOS>BOND
     1     1     2    1
     2     1    28    1
     3     1    29    1
     4     1    30    1
     5     2     3    1
     6     2    31    1
     7     2    32    1
     8     3     4    1
     9     3     5    1
    10     3     7    1
    11     5     6    1
    12     5    33    1
    13     5    34    1
    14     6    35    1
    15     6    36    1
    16     6    37    1
    17     7     8    1
    18     7    38    1
    19     7    39    1
    20     8     9    1
    21     8    40    1
    22     8    41    1
    23     9    10    1
    24    10    11    1
    25    10    42    1
    26    10    43    1
    27    11    12    1
    28    11    44    1
    29    11    45    1
    30    12    13   am
    31    12    46    1
    32    13    14    2
    33    13    15   am
    34    15    27    1
    35    15    16    1
    36    16    17    1
    37    16    47    1
    38    16    48    1
    39    17    18    1
    40    17    23    1
    41    17    19    1
    42    19    20    1
    43    19    49    1
    44    19    50    1
    45    20    21    1
    46    20    51    1
    47    20    52    1
    48    21    22    1
    49    21    53    1
    50    21    54    1
    51    22    23    1
    52    22    55    1
    53    22    56    1
    54    23    24    1
    55    23    27    1
    56    24    25   ar
    57    24    26   ar
    58    27    57    1
    59    27    58    1
@<TRIPOS>SUBSTRUCTURE
     1 ZINC001596273020        1 TEMP              0 ****  ****    0 ROOT


##########                                Name:     oleObject14.pdb
##########                DOCK_Rotatable_Bonds:                   9
##########                         Heavy_Atoms:                  33
##########                    Molecular_Weight:             484.424
##########                DOCK_Rotatable_Bonds:                   9
##########                       Formal_Charge:         0.000299782
##########                     HBond_Acceptors:                   7
##########                        HBond_Donors:                   1
##########                         Heavy_Atoms:                  33
##########                          Grid_Score:          -39.818798
##########                     Grid_vdw_energy:          -39.541496
##########                      Grid_es_energy:           -0.277303
##########           Internal_energy_repulsive:           10.983707

@<TRIPOS>MOLECULE
oleObject14.pdb
 60 63 1 0 0
SMALL
NO_CHARGES


@<TRIPOS>ATOM
      1 C          -4.7142    2.0128   49.3318 C.ar    1  UNL         0.0422
      2 C          -5.2846    3.2771   49.5486 C.ar    1  UNL        -0.0408
      3 C          -6.5113    3.3894   50.2241 C.ar    1  UNL        -0.0288
      4 C          -7.1754    2.2334   50.6873 C.ar    1  UNL         0.0937
      5 C          -6.5951    0.9677   50.4655 C.ar    1  UNL         0.0723
      6 C          -5.3684    0.8584   49.7897 C.ar    1  UNL        -0.0221
      7 CL         -7.3861   -0.4944   51.0244 Cl      1  UNL        -0.0814
      8 O          -8.3827    2.3005   51.3558 O.3     1  UNL        -0.3432
      9 C          -8.5530    2.9496   52.6283 C.3     1  UNL         0.0661
     10 C          -7.5547    2.3141   53.6181 C.3     1  UNL         0.0222
     11 N          -7.6307    2.8861   54.9808 N.4     1  UNL        -0.3010
     12 C          -8.8871    2.5754   55.7021 C.3     1  UNL        -0.0010
     13 C          -8.9579    3.2901   57.0700 C.3     1  UNL        -0.0289
     14 C          -7.7238    3.0075   57.9605 C.3     1  UNL         0.0382
     15 C          -6.4215    3.2485   57.1560 C.3     1  UNL        -0.0289
     16 C          -6.4214    2.5639   55.7689 C.3     1  UNL        -0.0010
     17 C          -7.7783    1.5896   58.5811 C.2     1  UNL         0.2156
     18 O          -7.2693    0.6280   58.0347 O.2     1  UNL        -0.2774
     19 N          -8.3812    1.3994   59.8179 N.am    1  UNL        -0.3025
     20 C          -8.5287    0.1350   60.5630 C.3     1  UNL         0.0900
     21 C          -8.5226    0.3322   62.0777 C.ar    1  UNL        -0.0217
     22 C          -8.0293    1.5191   62.6564 C.ar    1  UNL        -0.0568
     23 C          -8.0207    1.6794   64.0516 C.ar    1  UNL        -0.0619
     24 C          -8.5084    0.6562   64.8798 C.ar    1  UNL        -0.0622
     25 C          -9.0070   -0.5262   64.3110 C.ar    1  UNL        -0.0619
     26 C          -9.0154   -0.6861   62.9158 C.ar    1  UNL        -0.0568
     27 C          -9.7697   -0.6366   60.1242 C.ar    1  UNL         0.0652
     28 C         -11.0168   -0.4569   60.7578 C.ar    1  UNL        -0.0383
     29 C         -12.1205   -1.2028   60.3142 C.ar    1  UNL        -0.0588
     30 C         -11.9390   -2.1035   59.2533 C.ar    1  UNL        -0.0438
     31 C         -10.6614   -2.2220   58.6798 C.ar    1  UNL         0.0272
     32 N          -9.6002   -1.5067   59.1046 N.ar    1  UNL        -0.2590
     33 CL         -3.1856    1.8762   48.4898 Cl      1  UNL        -0.0843
     34 H          -4.7775    4.1701   49.1941 H       1  UNL         0.0639
     35 H          -6.9334    4.3768   50.3809 H       1  UNL         0.0652
     36 H          -4.9262   -0.1195   49.6215 H       1  UNL         0.0655
     37 H          -9.5807    2.8106   52.9849 H       1  UNL         0.0586
     38 H          -8.3439    4.0233   52.5383 H       1  UNL         0.0586
     39 H          -6.5445    2.4711   53.2178 H       1  UNL         0.0455
     40 H          -7.7288    1.2308   53.6570 H       1  UNL         0.0455
     41 H          -8.9675    1.4912   55.8550 H       1  UNL         0.0431
     42 H          -9.7569    2.8920   55.1150 H       1  UNL         0.0431
     43 H          -9.8775    2.9983   57.5906 H       1  UNL         0.0288
     44 H          -9.0277    4.3714   56.8945 H       1  UNL         0.0288
     45 H          -7.7236    3.7494   58.7635 H       1  UNL         0.0402
     46 H          -5.5530    2.9136   57.7372 H       1  UNL         0.0288
     47 H          -6.2985    4.3288   57.0046 H       1  UNL         0.0288
     48 H          -6.3458    1.4771   55.8992 H       1  UNL         0.0431
     49 H          -5.5258    2.8885   55.2234 H       1  UNL         0.0431
     50 H          -8.6672    2.2433   60.2977 H       1  UNL         0.1504
     51 H          -7.6660   -0.4896   60.2978 H       1  UNL         0.0624
     52 H          -7.6431    2.3158   62.0275 H       1  UNL         0.0626
     53 H          -7.6353    2.5954   64.4901 H       1  UNL         0.0623
     54 H          -8.5021    0.7804   65.9590 H       1  UNL         0.0623
     55 H          -9.3880   -1.3175   64.9503 H       1  UNL         0.0623
     56 H          -9.4054   -1.6044   62.4853 H       1  UNL         0.0626
     57 H         -11.1288    0.2461   61.5776 H       1  UNL         0.0643
     58 H         -13.0936   -1.0855   60.7823 H       1  UNL         0.0624
     59 H         -12.7689   -2.6979   58.8827 H       1  UNL         0.0639
     60 H         -10.4817   -2.9110   57.8553 H       1  UNL         0.0840
@<TRIPOS>BOND
     1     1     2   ar
     2     1     6   ar
     3     1    33    1
     4     2     3   ar
     5     2    34    1
     6     3     4   ar
     7     3    35    1
     8     4     5   ar
     9     4     8    1
    10     5     6   ar
    11     5     7    1
    12     6    36    1
    13     8     9    1
    14     9    10    1
    15     9    37    1
    16     9    38    1
    17    10    11    1
    18    10    39    1
    19    10    40    1
    20    11    12    1
    21    11    16    1
    22    12    13    1
    23    12    41    1
    24    12    42    1
    25    13    14    1
    26    13    43    1
    27    13    44    1
    28    14    15    1
    29    14    17    1
    30    14    45    1
    31    15    16    1
    32    15    46    1
    33    15    47    1
    34    16    48    1
    35    16    49    1
    36    17    18    2
    37    17    19   am
    38    19    20    1
    39    19    50    1
    40    20    21    1
    41    20    27    1
    42    20    51    1
    43    21    22   ar
    44    21    26   ar
    45    22    23   ar
    46    22    52    1
    47    23    24   ar
    48    23    53    1
    49    24    25   ar
    50    24    54    1
    51    25    26   ar
    52    25    55    1
    53    26    56    1
    54    27    28   ar
    55    27    32   ar
    56    28    29   ar
    57    28    57    1
    58    29    30   ar
    59    29    58    1
    60    30    31   ar
    61    30    59    1
    62    31    32   ar
    63    31    60    1
@<TRIPOS>SUBSTRUCTURE
     1 UNL         1 TEMP              0 ****  ****    0 ROOT


##########                                Name:    ZINC000824084043
##########                DOCK_Rotatable_Bonds:                  11
##########                         Heavy_Atoms:                  27
##########                    Molecular_Weight:             382.547
##########                DOCK_Rotatable_Bonds:                  11
##########                       Formal_Charge:        -6.85453e-07
##########                     HBond_Acceptors:                   7
##########                        HBond_Donors:                   3
##########                         Heavy_Atoms:                  27
##########                          Grid_Score:          -39.345573
##########                     Grid_vdw_energy:          -36.957497
##########                      Grid_es_energy:           -2.388078
##########           Internal_energy_repulsive:           17.905521

@<TRIPOS>MOLECULE
ZINC000824084043
 65 66 1 0 0
SMALL
USER_CHARGES


@<TRIPOS>ATOM
      1 C1        -14.5752   -4.0696   56.2721 C.3     1  ZINC000824084043   -0.1400
      2 C2        -13.9455   -2.7660   55.7772 C.3     1  ZINC000824084043   -0.1000
      3 C3        -14.8970   -1.6012   56.0579 C.3     1  ZINC000824084043   -0.1300
      4 C4        -12.6214   -2.5301   56.5065 C.3     1  ZINC000824084043    0.1700
      5 H5        -12.0101   -3.4307   56.4502 H       1  ZINC000824084043    0.0700
      6 C6        -11.8771   -1.3665   55.8488 C.3     1  ZINC000824084043   -0.1400
      7 C7        -10.3979   -1.4232   56.2360 C.3     1  ZINC000824084043    0.1300
      8 N8         -9.7038   -0.2566   55.6849 N.am    1  ZINC000824084043   -0.6200
      9 C9         -9.5573    0.9573   56.4917 C.3     1  ZINC000824084043    0.0800
     10 C10        -9.2000   -0.3004   54.4356 C.2     1  ZINC000824084043    0.7000
     11 O11        -9.3202   -1.3083   53.7664 O.2     1  ZINC000824084043   -0.5800
     12 N12        -8.5628    0.7734   53.9280 N.am    1  ZINC000824084043   -0.7500
     13 C13        -8.0136    0.7254   52.5708 C.3     1  ZINC000824084043    0.1600
     14 C14        -7.9017    2.1473   52.0131 C.3     1  ZINC000824084043   -0.1600
     15 C15        -7.2541    2.0963   50.6275 C.3     1  ZINC000824084043   -0.0100
     16 N16        -5.9156    1.5027   50.7306 N.4     1  ZINC000824084043   -0.3800
     17 H17        -5.3621    2.0353   51.3849 H       1  ZINC000824084043    0.4200
     18 C18        -5.2686    1.5257   49.4119 C.3     1  ZINC000824084043    0.0000
     19 C19        -4.2119    2.6318   49.3815 C.3     1  ZINC000824084043   -0.1200
     20 C20        -3.5225    2.7609   50.7625 C.3     1  ZINC000824084043   -0.1400
     21 C21        -2.1650    3.4165   50.4068 C.3     1  ZINC000824084043   -0.1200
     22 C22        -1.7639    2.7558   49.0717 C.3     1  ZINC000824084043   -0.1300
     23 C23        -3.0654    2.2568   48.4198 C.3     1  ZINC000824084043   -0.1100
     24 C24        -6.0207    0.1149   51.1967 C.3     1  ZINC000824084043    0.0000
     25 C25        -6.6208    0.0896   52.6041 C.3     1  ZINC000824084043   -0.1600
     26 N26       -12.8879   -2.2081   57.9107 N.am    1  ZINC000824084043   -0.7800
     27 C27       -12.1081   -2.7254   58.8805 C.2     1  ZINC000824084043    0.6600
     28 O28       -11.1788   -3.4650   58.5885 O.co2   1  ZINC000824084043   -0.7200
     29 O29       -12.3297   -2.4553   60.0527 O.co2   1  ZINC000824084043   -0.7300
     30 H30       -15.5185   -4.2377   55.7525 H       1  ZINC000824084043    0.0500
     31 H31       -13.8973   -4.8995   56.0721 H       1  ZINC000824084043    0.0500
     32 H32       -14.7583   -4.0004   57.3444 H       1  ZINC000824084043    0.0500
     33 H33       -13.7623   -2.8352   54.7048 H       1  ZINC000824084043    0.0500
     34 H34       -15.0801   -1.5320   57.1302 H       1  ZINC000824084043    0.0600
     35 H35       -14.4484   -0.6725   55.7052 H       1  ZINC000824084043    0.0700
     36 H36       -15.8403   -1.7693   55.5383 H       1  ZINC000824084043    0.0300
     37 H37       -11.9721   -1.4402   54.7654 H       1  ZINC000824084043    0.0700
     38 H38       -12.3054   -0.4232   56.1877 H       1  ZINC000824084043    0.0600
     39 H39       -10.3063   -1.4209   57.3221 H       1  ZINC000824084043    0.0900
     40 H40        -9.9523   -2.3338   55.8356 H       1  ZINC000824084043    0.0900
     41 H41        -8.6307    0.9041   57.0633 H       1  ZINC000824084043    0.0600
     42 H42        -9.5306    1.8280   55.8366 H       1  ZINC000824084043    0.0600
     43 H43       -10.4018    1.0430   57.1757 H       1  ZINC000824084043    0.0800
     44 H44        -8.4680    1.5781   54.4615 H       1  ZINC000824084043    0.4000
     45 H45        -8.6695    0.1330   51.9329 H       1  ZINC000824084043    0.1100
     46 H46        -8.8961    2.5865   51.9341 H       1  ZINC000824084043    0.1200
     47 H47        -7.2875    2.7524   52.6799 H       1  ZINC000824084043    0.0900
     48 H48        -7.8691    1.4911   49.9616 H       1  ZINC000824084043    0.1300
     49 H49        -7.1731    3.1070   50.2275 H       1  ZINC000824084043    0.1300
     50 H50        -4.7927    0.5632   49.2239 H       1  ZINC000824084043    0.1300
     51 H51        -6.0172    1.7171   48.6432 H       1  ZINC000824084043    0.1300
     52 H52        -4.6619    3.5800   49.0873 H       1  ZINC000824084043    0.1000
     53 H53        -4.1011    3.4052   51.4243 H       1  ZINC000824084043    0.0700
     54 H54        -3.3713    1.7794   51.2120 H       1  ZINC000824084043    0.0800
     55 H55        -2.2828    4.4927   50.2797 H       1  ZINC000824084043    0.0700
     56 H56        -1.4240    3.2013   51.1767 H       1  ZINC000824084043    0.0800
     57 H57        -1.2784    3.4863   48.4247 H       1  ZINC000824084043    0.0700
     58 H58        -1.0935    1.9166   49.2571 H       1  ZINC000824084043    0.0700
     59 H59        -3.0266    1.1754   48.2888 H       1  ZINC000824084043    0.0700
     60 H60        -3.2115    2.7451   47.4564 H       1  ZINC000824084043    0.0800
     61 H61        -6.6620   -0.4481   50.5186 H       1  ZINC000824084043    0.1300
     62 H62        -5.0291   -0.3372   51.2168 H       1  ZINC000824084043    0.1300
     63 H63        -5.9801    0.6521   53.2831 H       1  ZINC000824084043    0.0900
     64 H64        -6.6996   -0.9419   52.9477 H       1  ZINC000824084043    0.1200
     65 H65       -13.6258   -1.6226   58.1423 H       1  ZINC000824084043    0.3600
@<TRIPOS>BOND
     1     1     2    1
     2     1    30    1
     3     1    31    1
     4     1    32    1
     5     2     3    1
     6     2     4    1
     7     2    33    1
     8     3    34    1
     9     3    35    1
    10     3    36    1
    11     4     5    1
    12     4     6    1
    13     4    26    1
    14     6     7    1
    15     6    37    1
    16     6    38    1
    17     7     8    1
    18     7    39    1
    19     7    40    1
    20     8     9    1
    21     8    10   am
    22     9    41    1
    23     9    42    1
    24     9    43    1
    25    10    11    2
    26    10    12   am
    27    12    13    1
    28    12    44    1
    29    13    25    1
    30    13    14    1
    31    13    45    1
    32    14    15    1
    33    14    46    1
    34    14    47    1
    35    15    16    1
    36    15    48    1
    37    15    49    1
    38    16    17    1
    39    16    18    1
    40    16    24    1
    41    18    19    1
    42    18    50    1
    43    18    51    1
    44    19    23    1
    45    19    20    1
    46    19    52    1
    47    20    21    1
    48    20    53    1
    49    20    54    1
    50    21    22    1
    51    21    55    1
    52    21    56    1
    53    22    23    1
    54    22    57    1
    55    22    58    1
    56    23    59    1
    57    23    60    1
    58    24    25    1
    59    24    61    1
    60    24    62    1
    61    25    63    1
    62    25    64    1
    63    26    27   am
    64    26    65    1
    65    27    28   ar
    66    27    29   ar
@<TRIPOS>SUBSTRUCTURE
     1 ZINC000824084043        1 TEMP              0 ****  ****    0 ROOT


##########                                Name:    ZINC000859496582
##########                DOCK_Rotatable_Bonds:                  10
##########                         Heavy_Atoms:                  26
##########                    Molecular_Weight:             361.438
##########                DOCK_Rotatable_Bonds:                  10
##########                       Formal_Charge:           0.0100006
##########                     HBond_Acceptors:                   6
##########                        HBond_Donors:                   0
##########                         Heavy_Atoms:                  26
##########                          Grid_Score:          -39.298416
##########                     Grid_vdw_energy:          -36.835529
##########                      Grid_es_energy:           -2.462889
##########           Internal_energy_repulsive:           19.712740

@<TRIPOS>MOLECULE
ZINC000859496582
 53 54 1 0 0
SMALL
USER_CHARGES


@<TRIPOS>ATOM
      1 C1         -7.3049    0.6264   66.3533 C.3     1  ZINC000859496582    0.0300
      2 O2         -7.9035   -0.6814   66.5525 O.3     1  ZINC000859496582   -0.3600
      3 C3         -8.9077   -1.0236   65.7302 C.2     1  ZINC000859496582    0.4600
      4 O4         -9.4442   -2.0998   65.8471 O.2     1  ZINC000859496582   -0.5100
      5 C5         -9.3658   -0.0654   64.6610 C.3     1  ZINC000859496582   -0.1100
      6 C6         -8.6230   -0.3634   63.3569 C.3     1  ZINC000859496582   -0.1100
      7 C7         -8.8026    0.8077   62.3888 C.3     1  ZINC000859496582   -0.1200
      8 C8        -10.2461    0.8339   61.8822 C.3     1  ZINC000859496582    0.0700
      9 O9        -10.5590   -0.4335   61.2466 O.3     1  ZINC000859496582   -0.3500
     10 C10       -11.7940   -0.5723   60.7395 C.2     1  ZINC000859496582    0.4700
     11 O11       -12.6941    0.1266   61.1411 O.2     1  ZINC000859496582   -0.5000
     12 C12       -12.0579   -1.6000   59.6693 C.3     1  ZINC000859496582   -0.1000
     13 H13       -12.1822   -2.5804   60.1290 H       1  ZINC000859496582    0.1200
     14 C14       -10.8777   -1.6383   58.6958 C.3     1  ZINC000859496582   -0.1100
     15 C15       -11.1298   -2.7046   57.6273 C.3     1  ZINC000859496582   -0.1300
     16 C16       -12.3940   -2.3443   56.8406 C.3     1  ZINC000859496582    0.1100
     17 N17       -13.5039   -2.1633   57.7861 N.am    1  ZINC000859496582   -0.6100
     18 C18       -14.6572   -2.8427   57.6295 C.2     1  ZINC000859496582    0.5700
     19 O19       -15.5681   -2.6842   58.4186 O.2     1  ZINC000859496582   -0.5300
     20 C20       -14.8145   -3.7810   56.4978 C.ar    1  ZINC000859496582   -0.1400
     21 C21       -14.4131   -5.1114   56.6292 C.ar    1  ZINC000859496582   -0.0900
     22 C22       -14.5630   -5.9818   55.5695 C.ar    1  ZINC000859496582   -0.1200
     23 C23       -15.1095   -5.5386   54.3782 C.ar    1  ZINC000859496582   -0.0600
     24 C24       -15.2699   -6.4950   53.2247 C.3     1  ZINC000859496582   -0.1200
     25 C25       -15.5099   -4.2212   54.2414 C.ar    1  ZINC000859496582   -0.1200
     26 C26       -15.3703   -3.3418   55.2952 C.ar    1  ZINC000859496582   -0.0600
     27 C27       -13.3330   -1.2277   58.9062 C.3     1  ZINC000859496582    0.1100
     28 H28        -8.0646    1.3972   66.4823 H       1  ZINC000859496582    0.0600
     29 H29        -6.5079    0.7760   67.0818 H       1  ZINC000859496582    0.1000
     30 H30        -6.8925    0.6876   65.3462 H       1  ZINC000859496582    0.0600
     31 H31       -10.4379   -0.1824   64.5034 H       1  ZINC000859496582    0.1100
     32 H32        -9.1541    0.9570   64.9743 H       1  ZINC000859496582    0.1100
     33 H33        -7.5625   -0.5023   63.5664 H       1  ZINC000859496582    0.0800
     34 H34        -9.0267   -1.2710   62.9081 H       1  ZINC000859496582    0.0800
     35 H35        -8.5813    1.7424   62.9040 H       1  ZINC000859496582    0.0800
     36 H36        -8.1233    0.6886   61.5446 H       1  ZINC000859496582    0.0800
     37 H37       -10.9227    0.9965   62.7211 H       1  ZINC000859496582    0.0700
     38 H38       -10.3628    1.6415   61.1595 H       1  ZINC000859496582    0.0700
     39 H39       -10.7688   -0.6644   58.2184 H       1  ZINC000859496582    0.0800
     40 H40        -9.9650   -1.8792   59.2409 H       1  ZINC000859496582    0.0800
     41 H41       -10.2784   -2.7475   56.9481 H       1  ZINC000859496582    0.0900
     42 H42       -11.2632   -3.6748   58.1059 H       1  ZINC000859496582    0.0700
     43 H43       -12.2295   -1.4191   56.2885 H       1  ZINC000859496582    0.0700
     44 H44       -12.6336   -3.1492   56.1457 H       1  ZINC000859496582    0.1000
     45 H45       -13.9857   -5.4584   57.5584 H       1  ZINC000859496582    0.1300
     46 H46       -14.2528   -7.0114   55.6699 H       1  ZINC000859496582    0.1300
     47 H47       -16.2465   -6.9752   53.2839 H       1  ZINC000859496582    0.0800
     48 H48       -15.1904   -5.9478   52.2853 H       1  ZINC000859496582    0.0700
     49 H49       -14.4885   -7.2536   53.2704 H       1  ZINC000859496582    0.0700
     50 H50       -15.9360   -3.8816   53.3090 H       1  ZINC000859496582    0.1300
     51 H51       -15.6836   -2.3138   55.1872 H       1  ZINC000859496582    0.1300
     52 H52       -14.1922   -1.2958   59.5735 H       1  ZINC000859496582    0.1100
     53 H53       -13.2449   -0.2111   58.5230 H       1  ZINC000859496582    0.0800
@<TRIPOS>BOND
     1     1     2    1
     2     1    28    1
     3     1    29    1
     4     1    30    1
     5     2     3    1
     6     3     4    2
     7     3     5    1
     8     5     6    1
     9     5    31    1
    10     5    32    1
    11     6     7    1
    12     6    33    1
    13     6    34    1
    14     7     8    1
    15     7    35    1
    16     7    36    1
    17     8     9    1
    18     8    37    1
    19     8    38    1
    20     9    10    1
    21    10    11    2
    22    10    12    1
    23    12    13    1
    24    12    27    1
    25    12    14    1
    26    14    15    1
    27    14    39    1
    28    14    40    1
    29    15    16    1
    30    15    41    1
    31    15    42    1
    32    16    17    1
    33    16    43    1
    34    16    44    1
    35    17    18   am
    36    17    27    1
    37    18    19    2
    38    18    20    1
    39    20    26   ar
    40    20    21   ar
    41    21    22   ar
    42    21    45    1
    43    22    23   ar
    44    22    46    1
    45    23    24    1
    46    23    25   ar
    47    24    47    1
    48    24    48    1
    49    24    49    1
    50    25    26   ar
    51    25    50    1
    52    26    51    1
    53    27    52    1
    54    27    53    1
@<TRIPOS>SUBSTRUCTURE
     1 ZINC000859496582        1 TEMP              0 ****  ****    0 ROOT


##########                                Name:    ZINC000467185792
##########                DOCK_Rotatable_Bonds:                   9
##########                         Heavy_Atoms:                  29
##########                    Molecular_Weight:             412.513
##########                DOCK_Rotatable_Bonds:                   9
##########                       Formal_Charge:                0.04
##########                     HBond_Acceptors:                   8
##########                        HBond_Donors:                   2
##########                         Heavy_Atoms:                  29
##########                          Grid_Score:          -38.932018
##########                     Grid_vdw_energy:          -35.567738
##########                      Grid_es_energy:           -3.364281
##########           Internal_energy_repulsive:           21.639149

@<TRIPOS>MOLECULE
ZINC000467185792
 53 55 1 0 0
SMALL
USER_CHARGES


@<TRIPOS>ATOM
      1 C1         -9.6138    0.5508   65.9639 C.3     1  ZINC000467185792   -0.1500
      2 C2         -9.2474   -0.3337   64.7705 C.3     1  ZINC000467185792   -0.1200
      3 C3         -9.0175    0.5429   63.5377 C.3     1  ZINC000467185792    0.0600
      4 O4         -8.6555   -0.2814   62.4280 O.3     1  ZINC000467185792   -0.3100
      5 C5         -8.4389    0.3428   61.2403 C.ar    1  ZINC000467185792    0.1400
      6 C6         -8.5754    1.7211   61.1474 C.ar    1  ZINC000467185792   -0.2100
      7 C7         -8.3558    2.3577   59.9436 C.ar    1  ZINC000467185792   -0.0400
      8 C8         -7.9966    1.6155   58.8197 C.ar    1  ZINC000467185792   -0.0600
      9 C9         -7.7592    2.2971   57.5237 C.2     1  ZINC000467185792    0.1400
     10 C10        -8.2526    3.5186   57.2531 C.2     1  ZINC000467185792   -0.3000
     11 S11        -7.7491    3.9679   55.6252 S.3     1  ZINC000467185792    0.2000
     12 C12        -6.9032    2.4319   55.4624 C.2     1  ZINC000467185792    0.2800
     13 N13        -6.1942    2.0211   54.3418 N.am    1  ZINC000467185792   -0.6100
     14 C14        -6.7541    2.1127   53.1192 C.2     1  ZINC000467185792    0.5900
     15 O15        -7.8804    2.5553   52.9978 O.2     1  ZINC000467185792   -0.4900
     16 C16        -6.0016    1.6767   51.9297 C.2     1  ZINC000467185792   -0.2400
     17 C17        -5.1078    2.5299   51.2855 C.2     1  ZINC000467185792    0.0800
     18 C18        -4.8782    3.9333   51.7845 C.3     1  ZINC000467185792   -0.1200
     19 C19        -3.7076    3.9391   52.7697 C.3     1  ZINC000467185792   -0.1400
     20 C20        -4.4292    2.0444   50.1610 C.2     1  ZINC000467185792    0.0600
     21 C21        -3.4535    2.9349   49.4356 C.3     1  ZINC000467185792   -0.0600
     22 C22        -2.9766    2.2365   48.1605 C.3     1  ZINC000467185792   -0.1500
     23 N23        -4.6338    0.8274   49.7358 N.2     1  ZINC000467185792   -0.1800
     24 N24        -5.4486    0.0165   50.3047 N.am    1  ZINC000467185792   -0.4300
     25 C25        -6.1546    0.3654   51.3972 C.2     1  ZINC000467185792    0.5000
     26 O26        -6.9220   -0.4268   51.9164 O.2     1  ZINC000467185792   -0.5300
     27 N27        -7.0416    1.7464   56.5548 N.2     1  ZINC000467185792   -0.5000
     28 C28        -7.8604    0.2316   58.9163 C.ar    1  ZINC000467185792   -0.0600
     29 C29        -8.0762   -0.3985   60.1242 C.ar    1  ZINC000467185792   -0.1500
     30 H30       -10.5240    1.1066   65.7383 H       1  ZINC000467185792    0.0600
     31 H31        -9.7777   -0.0736   66.8421 H       1  ZINC000467185792    0.0700
     32 H32        -8.8010    1.2497   66.1614 H       1  ZINC000467185792    0.0600
     33 H33        -8.3372   -0.8893   64.9961 H       1  ZINC000467185792    0.0700
     34 H34       -10.0603   -1.0325   64.5730 H       1  ZINC000467185792    0.0700
     35 H35        -9.9324    1.0870   63.3030 H       1  ZINC000467185792    0.0600
     36 H36        -8.2149    1.2520   63.7406 H       1  ZINC000467185792    0.0600
     37 H37        -8.8541    2.2955   62.0184 H       1  ZINC000467185792    0.1300
     38 H38        -8.4625    3.4301   59.8719 H       1  ZINC000467185792    0.1300
     39 H39        -8.8540    4.1203   57.9185 H       1  ZINC000467185792    0.1800
     40 H40        -5.2959    1.6682   54.4385 H       1  ZINC000467185792    0.4400
     41 H41        -4.6472    4.5852   50.9420 H       1  ZINC000467185792    0.0900
     42 H42        -5.7769    4.2923   52.2860 H       1  ZINC000467185792    0.1300
     43 H43        -3.9386    3.2872   53.6122 H       1  ZINC000467185792    0.0600
     44 H44        -2.8088    3.5801   52.2682 H       1  ZINC000467185792    0.0600
     45 H45        -3.5415    4.9542   53.1306 H       1  ZINC000467185792    0.0700
     46 H46        -3.9428    3.8733   49.1747 H       1  ZINC000467185792    0.1000
     47 H47        -2.5983    3.1379   50.0802 H       1  ZINC000467185792    0.1000
     48 H48        -2.2709    2.8806   47.6358 H       1  ZINC000467185792    0.0600
     49 H49        -2.4874    1.2981   48.4214 H       1  ZINC000467185792    0.0600
     50 H50        -3.8318    2.0336   47.5159 H       1  ZINC000467185792    0.0600
     51 H51        -5.5563   -0.8758   49.9397 H       1  ZINC000467185792    0.4500
     52 H52        -7.5825   -0.3462   58.0473 H       1  ZINC000467185792    0.1300
     53 H53        -7.9705   -1.4706   60.1998 H       1  ZINC000467185792    0.1400
@<TRIPOS>BOND
     1     1     2    1
     2     1    30    1
     3     1    31    1
     4     1    32    1
     5     2     3    1
     6     2    33    1
     7     2    34    1
     8     3     4    1
     9     3    35    1
    10     3    36    1
    11     4     5    1
    12     5    29   ar
    13     5     6   ar
    14     6     7   ar
    15     6    37    1
    16     7     8   ar
    17     7    38    1
    18     8     9    1
    19     8    28   ar
    20     9    27    1
    21     9    10    2
    22    10    11    1
    23    10    39    1
    24    11    12    1
    25    12    13    1
    26    12    27    2
    27    13    14   am
    28    13    40    1
    29    14    15    2
    30    14    16    1
    31    16    25    1
    32    16    17    2
    33    17    18    1
    34    17    20    1
    35    18    19    1
    36    18    41    1
    37    18    42    1
    38    19    43    1
    39    19    44    1
    40    19    45    1
    41    20    21    1
    42    20    23    2
    43    21    22    1
    44    21    46    1
    45    21    47    1
    46    22    48    1
    47    22    49    1
    48    22    50    1
    49    23    24    1
    50    24    25   am
    51    24    51    1
    52    25    26    2
    53    28    29   ar
    54    28    52    1
    55    29    53    1
@<TRIPOS>SUBSTRUCTURE
     1 ZINC000467185792        1 TEMP              0 ****  ****    0 ROOT


##########                                Name:    ZINC000487792031
##########                DOCK_Rotatable_Bonds:                  12
##########                         Heavy_Atoms:                  29
##########                    Molecular_Weight:             414.569
##########                DOCK_Rotatable_Bonds:                  12
##########                       Formal_Charge:          -0.0100001
##########                     HBond_Acceptors:                   6
##########                        HBond_Donors:                   1
##########                         Heavy_Atoms:                  29
##########                          Grid_Score:          -38.344902
##########                     Grid_vdw_energy:          -37.793907
##########                      Grid_es_energy:           -0.550997
##########           Internal_energy_repulsive:           15.215543

@<TRIPOS>MOLECULE
ZINC000487792031
 59 60 1 0 0
SMALL
USER_CHARGES


@<TRIPOS>ATOM
      1 C1        -14.2411   -3.7335   55.9579 C.2     1  ZINC000487792031   -0.1900
      2 C2        -13.4695   -3.5145   56.9936 C.2     1  ZINC000487792031   -0.1500
      3 C3        -12.1519   -2.8053   56.8151 C.3     1  ZINC000487792031   -0.0900
      4 C4        -11.8124   -2.0312   58.0903 C.3     1  ZINC000487792031   -0.0900
      5 C5        -10.4519   -1.3505   57.9268 C.3     1  ZINC000487792031   -0.0700
      6 H6         -9.7331   -2.0663   57.5277 H       1  ZINC000487792031    0.1100
      7 C7        -10.5829   -0.1876   56.9772 C.2     1  ZINC000487792031    0.5200
      8 O8        -11.5223    0.5731   57.0761 O.2     1  ZINC000487792031   -0.5300
      9 N9         -9.6563    0.0069   56.0181 N.am    1  ZINC000487792031   -0.7200
     10 C10        -9.7846    1.1363   55.0939 C.3     1  ZINC000487792031    0.1500
     11 C11        -8.7051    1.0528   54.0457 C.ar    1  ZINC000487792031   -0.0500
     12 C12        -7.5677    1.8299   54.1615 C.ar    1  ZINC000487792031   -0.1200
     13 C13        -6.5775    1.7533   53.1999 C.ar    1  ZINC000487792031   -0.0200
     14 C14        -6.7244    0.8992   52.1229 C.ar    1  ZINC000487792031   -0.6700
     15 S15        -5.4625    0.8020   50.8971 S.o2    1  ZINC000487792031    2.6900
     16 O16        -4.2239    0.8328   51.5929 O.2     1  ZINC000487792031   -0.9500
     17 O17        -5.8353   -0.2522   50.0202 O.2     1  ZINC000487792031   -0.9500
     18 N18        -5.5343    2.1972   50.0080 N.am    1  ZINC000487792031   -1.0000
     19 C19        -6.7585    2.5398   49.2799 C.3     1  ZINC000487792031    0.1200
     20 C20        -7.4579    3.7072   49.9792 C.3     1  ZINC000487792031   -0.1800
     21 C21        -4.3734    3.0890   49.9497 C.3     1  ZINC000487792031    0.1100
     22 C22        -3.3553    2.5361   48.9502 C.3     1  ZINC000487792031   -0.1800
     23 C23        -7.8613    0.1212   52.0078 C.ar    1  ZINC000487792031   -0.0200
     24 C24        -8.8498    0.1949   52.9714 C.ar    1  ZINC000487792031   -0.1200
     25 C25        -9.9746   -0.8533   59.2669 C.ar    1  ZINC000487792031   -0.0800
     26 C26       -10.8899   -0.4392   60.2165 C.ar    1  ZINC000487792031   -0.1100
     27 C27       -10.4519    0.0168   61.4459 C.ar    1  ZINC000487792031   -0.1100
     28 C28        -9.0989    0.0583   61.7257 C.ar    1  ZINC000487792031   -0.1200
     29 C29        -8.1837   -0.3567   60.7765 C.ar    1  ZINC000487792031   -0.1200
     30 C30        -8.6218   -0.8168   59.5487 C.ar    1  ZINC000487792031   -0.1100
     31 H31       -15.1855   -4.2417   56.0859 H       1  ZINC000487792031    0.1000
     32 H32       -13.9350   -3.4020   54.9767 H       1  ZINC000487792031    0.1000
     33 H33       -13.7777   -3.8422   57.9755 H       1  ZINC000487792031    0.1100
     34 H34       -11.3694   -3.5373   56.6151 H       1  ZINC000487792031    0.0700
     35 H35       -12.2231   -2.1117   55.9771 H       1  ZINC000487792031    0.0700
     36 H36       -12.5771   -1.2759   58.2714 H       1  ZINC000487792031    0.0800
     37 H37       -11.7749   -2.7200   58.9343 H       1  ZINC000487792031    0.0700
     38 H38        -8.9044   -0.6009   55.9397 H       1  ZINC000487792031    0.4000
     39 H39       -10.7620    1.1025   54.6124 H       1  ZINC000487792031    0.0800
     40 H40        -9.6837    2.0708   55.6459 H       1  ZINC000487792031    0.0800
     41 H41        -7.4529    2.4970   55.0029 H       1  ZINC000487792031    0.1400
     42 H42        -5.6892    2.3608   53.2900 H       1  ZINC000487792031    0.1400
     43 H43        -6.5060    2.8264   48.2591 H       1  ZINC000487792031    0.0800
     44 H44        -7.4236    1.6765   49.2610 H       1  ZINC000487792031    0.0800
     45 H45        -7.7105    3.4206   51.0000 H       1  ZINC000487792031    0.0600
     46 H46        -6.7929    4.5705   49.9981 H       1  ZINC000487792031    0.0600
     47 H47        -8.3688    3.9620   49.4375 H       1  ZINC000487792031    0.0700
     48 H48        -4.6931    4.0813   49.6312 H       1  ZINC000487792031    0.0900
     49 H49        -3.9153    3.1542   50.9365 H       1  ZINC000487792031    0.0900
     50 H50        -3.0356    1.5439   49.2687 H       1  ZINC000487792031    0.0600
     51 H51        -3.8134    2.4709   47.9634 H       1  ZINC000487792031    0.0600
     52 H52        -2.4916    3.1997   48.9069 H       1  ZINC000487792031    0.0700
     53 H53        -7.9759   -0.5463   51.1666 H       1  ZINC000487792031    0.1400
     54 H54        -9.7379   -0.4130   52.8815 H       1  ZINC000487792031    0.1400
     55 H55       -11.9469   -0.4715   59.9978 H       1  ZINC000487792031    0.1200
     56 H56       -11.1669    0.3411   62.1874 H       1  ZINC000487792031    0.1200
     57 H57        -8.7567    0.4152   62.6859 H       1  ZINC000487792031    0.1200
     58 H58        -7.1265   -0.3240   60.9950 H       1  ZINC000487792031    0.1200
     59 H59        -7.9067   -1.1411   58.8071 H       1  ZINC000487792031    0.1200
@<TRIPOS>BOND
     1     1     2    2
     2     1    31    1
     3     1    32    1
     4     2     3    1
     5     2    33    1
     6     3     4    1
     7     3    34    1
     8     3    35    1
     9     4     5    1
    10     4    36    1
    11     4    37    1
    12     5     6    1
    13     5     7    1
    14     5    25    1
    15     7     8    2
    16     7     9   am
    17     9    10    1
    18     9    38    1
    19    10    11    1
    20    10    39    1
    21    10    40    1
    22    11    24   ar
    23    11    12   ar
    24    12    13   ar
    25    12    41    1
    26    13    14   ar
    27    13    42    1
    28    14    15    1
    29    14    23   ar
    30    15    16    2
    31    15    17    2
    32    15    18   am
    33    18    19    1
    34    18    21    1
    35    19    20    1
    36    19    43    1
    37    19    44    1
    38    20    45    1
    39    20    46    1
    40    20    47    1
    41    21    22    1
    42    21    48    1
    43    21    49    1
    44    22    50    1
    45    22    51    1
    46    22    52    1
    47    23    24   ar
    48    23    53    1
    49    24    54    1
    50    25    30   ar
    51    25    26   ar
    52    26    27   ar
    53    26    55    1
    54    27    28   ar
    55    27    56    1
    56    28    29   ar
    57    28    57    1
    58    29    30   ar
    59    29    58    1
    60    30    59    1
@<TRIPOS>SUBSTRUCTURE
     1 ZINC000487792031        1 TEMP              0 ****  ****    0 ROOT


##########                                Name:    ZINC001574157642
##########                DOCK_Rotatable_Bonds:                   9
##########                         Heavy_Atoms:                  28
##########                    Molecular_Weight:             387.445
##########                DOCK_Rotatable_Bonds:                   9
##########                       Formal_Charge:          -0.0400004
##########                     HBond_Acceptors:                  11
##########                        HBond_Donors:                   4
##########                         Heavy_Atoms:                  28
##########                          Grid_Score:          -38.341515
##########                     Grid_vdw_energy:          -35.501316
##########                      Grid_es_energy:           -2.840200
##########           Internal_energy_repulsive:           11.663714

@<TRIPOS>MOLECULE
ZINC001574157642
 53 55 1 0 0
SMALL
USER_CHARGES


@<TRIPOS>ATOM
      1 C1        -11.7882    0.6674   53.6429 C.3     1  ZINC001574157642   -0.1400
      2 C2        -10.8530    1.3444   52.6388 C.3     1  ZINC001574157642   -0.0900
      3 C3        -11.6771    2.1822   51.6591 C.3     1  ZINC001574157642   -0.1500
      4 C4         -9.8726    2.2508   53.3858 C.3     1  ZINC001574157642   -0.1300
      5 C5         -8.7485    1.4026   53.9843 C.3     1  ZINC001574157642    0.1300
      6 H6         -9.0264    0.3495   53.9427 H       1  ZINC001574157642    0.1100
      7 C7         -8.5202    1.8127   55.4405 C.3     1  ZINC001574157642    0.1100
      8 N8         -9.6246    1.3180   56.2660 N.pl3   1  ZINC001574157642   -0.7100
      9 C9         -9.3965    0.9583   57.5885 C.ar    1  ZINC001574157642    0.3700
     10 C10       -10.4556    0.5281   58.3859 C.ar    1  ZINC001574157642    0.0000
     11 N11       -10.2401    0.1870   59.6409 N.ar    1  ZINC001574157642   -0.3700
     12 C12        -9.0114    0.2529   60.1462 C.ar    1  ZINC001574157642    0.0800
     13 C13        -8.7683   -0.1314   61.5588 C.2     1  ZINC001574157642    0.2300
     14 N14        -7.6146   -0.0992   62.1962 N.2     1  ZINC001574157642   -0.2700
     15 N15        -7.8186   -0.5076   63.4013 N.pl3   1  ZINC001574157642   -0.2300
     16 N16        -9.0643   -0.7975   63.5478 N.2     1  ZINC001574157642   -0.0400
     17 N17        -9.6800   -0.5733   62.4368 N.2     1  ZINC001574157642   -0.2600
     18 C18        -7.9531    0.6824   59.3489 C.ar    1  ZINC001574157642    0.1600
     19 N19        -8.1692    1.0192   58.0905 N.ar    1  ZINC001574157642   -0.5000
     20 N20        -7.5173    1.6133   53.2188 N.am    1  ZINC001574157642   -0.7300
     21 C21        -7.2215    0.8043   52.1822 C.2     1  ZINC001574157642    0.5200
     22 O22        -7.9738   -0.0990   51.8841 O.2     1  ZINC001574157642   -0.5100
     23 C23        -5.9559    1.0222   51.3937 C.3     1  ZINC001574157642   -0.1300
     24 H24        -5.1230    1.1871   52.0771 H       1  ZINC001574157642    0.1100
     25 C25        -6.1220    2.2432   50.4811 C.3     1  ZINC001574157642   -0.1000
     26 C26        -4.7700    2.5497   49.8321 C.3     1  ZINC001574157642   -0.1400
     27 C27        -4.1844    1.2937   49.2536 C.2     1  ZINC001574157642    0.5200
     28 O28        -3.2957    1.3989   48.4349 O.2     1  ZINC001574157642   -0.5500
     29 N29        -4.5889    0.0689   49.5920 N.am    1  ZINC001574157642   -0.7200
     30 C30        -5.6732   -0.2060   50.5275 C.3     1  ZINC001574157642    0.1200
     31 H31       -12.3429    1.4278   54.1926 H       1  ZINC001574157642    0.0400
     32 H32       -12.4865    0.0217   53.1107 H       1  ZINC001574157642    0.0500
     33 H33       -11.2011    0.0705   54.3408 H       1  ZINC001574157642    0.0700
     34 H34       -10.2982    0.5839   52.0892 H       1  ZINC001574157642    0.0700
     35 H35       -12.2318    2.9426   52.2087 H       1  ZINC001574157642    0.0500
     36 H36       -11.0109    2.6645   50.9437 H       1  ZINC001574157642    0.0500
     37 H37       -12.3755    1.5364   51.1270 H       1  ZINC001574157642    0.0500
     38 H38        -9.4495    2.9778   52.6926 H       1  ZINC001574157642    0.0700
     39 H39       -10.3979    2.7738   54.1849 H       1  ZINC001574157642    0.0800
     40 H40        -7.5819    1.3862   55.7953 H       1  ZINC001574157642    0.0800
     41 H41        -8.4739    2.8997   55.5088 H       1  ZINC001574157642    0.0900
     42 H42       -10.5153    1.2417   55.8895 H       1  ZINC001574157642    0.4100
     43 H43       -11.4532    0.4745   57.9757 H       1  ZINC001574157642    0.1700
     44 H44        -7.1398   -0.5849   64.0900 H       1  ZINC001574157642    0.4800
     45 H45        -6.9553    0.7365   59.7589 H       1  ZINC001574157642    0.1800
     46 H46        -6.9150    2.3351   53.4580 H       1  ZINC001574157642    0.4000
     47 H47        -6.8592    2.0259   49.7080 H       1  ZINC001574157642    0.0800
     48 H48        -6.4490    3.0999   51.0702 H       1  ZINC001574157642    0.0900
     49 H49        -4.9074    3.2842   49.0385 H       1  ZINC001574157642    0.1100
     50 H50        -4.0910    2.9531   50.5834 H       1  ZINC001574157642    0.1000
     51 H51        -4.1317   -0.6875   49.1926 H       1  ZINC001574157642    0.4000
     52 H52        -5.3952   -1.0456   51.1646 H       1  ZINC001574157642    0.0800
     53 H53        -6.5735   -0.4637   49.9697 H       1  ZINC001574157642    0.0700
@<TRIPOS>BOND
     1     1     2    1
     2     1    31    1
     3     1    32    1
     4     1    33    1
     5     2     3    1
     6     2     4    1
     7     2    34    1
     8     3    35    1
     9     3    36    1
    10     3    37    1
    11     4     5    1
    12     4    38    1
    13     4    39    1
    14     5     6    1
    15     5     7    1
    16     5    20    1
    17     7     8    1
    18     7    40    1
    19     7    41    1
    20     8     9    1
    21     8    42    1
    22     9    19   ar
    23     9    10   ar
    24    10    11   ar
    25    10    43    1
    26    11    12   ar
    27    12    13    1
    28    12    18   ar
    29    13    17    1
    30    13    14    2
    31    14    15    1
    32    15    16    1
    33    15    44    1
    34    16    17    2
    35    18    19   ar
    36    18    45    1
    37    20    21   am
    38    20    46    1
    39    21    22    2
    40    21    23    1
    41    23    24    1
    42    23    30    1
    43    23    25    1
    44    25    26    1
    45    25    47    1
    46    25    48    1
    47    26    27    1
    48    26    49    1
    49    26    50    1
    50    27    28    2
    51    27    29   am
    52    29    30    1
    53    29    51    1
    54    30    52    1
    55    30    53    1
@<TRIPOS>SUBSTRUCTURE
     1 ZINC001574157642        1 TEMP              0 ****  ****    0 ROOT


##########                                Name:    ZINC000047262406
##########                DOCK_Rotatable_Bonds:                   6
##########                         Heavy_Atoms:                  28
##########                    Molecular_Weight:             417.919
##########                DOCK_Rotatable_Bonds:                   6
##########                       Formal_Charge:          -0.0100002
##########                     HBond_Acceptors:                   9
##########                        HBond_Donors:                   1
##########                         Heavy_Atoms:                  28
##########                          Grid_Score:          -38.140297
##########                     Grid_vdw_energy:          -37.547787
##########                      Grid_es_energy:           -0.592511
##########           Internal_energy_repulsive:           17.271803

@<TRIPOS>MOLECULE
ZINC000047262406
 48 51 1 0 0
SMALL
USER_CHARGES


@<TRIPOS>ATOM
      1 C1         -9.6303    2.2671   53.3459 C.3     1  ZINC000047262406   -0.1500
      2 C2         -8.8074    1.0181   53.6683 C.3     1  ZINC000047262406    0.1800
      3 H3         -9.4097    0.1286   53.4839 H       1  ZINC000047262406    0.0800
      4 C4         -8.3903    1.0512   55.1160 C.2     1  ZINC000047262406    0.1700
      5 N5         -7.3940    1.7277   55.6139 N.2     1  ZINC000047262406   -0.2500
      6 N6         -7.3259    1.5248   56.8825 N.2     1  ZINC000047262406   -0.2700
      7 C7         -8.2875    0.7024   57.2418 C.2     1  ZINC000047262406    0.2400
      8 C8         -8.5580    0.2173   58.6034 C.2     1  ZINC000047262406   -0.1500
      9 C9         -7.9017    0.6181   59.7270 C.2     1  ZINC000047262406   -0.0600
     10 C10        -8.3382    0.0172   60.8870 C.2     1  ZINC000047262406   -0.1400
     11 C11        -9.3332   -0.8624   60.7327 C.2     1  ZINC000047262406   -0.1900
     12 S12        -9.7849   -0.9662   59.0367 S.3     1  ZINC000047262406    0.1700
     13 O13        -8.9831    0.3922   56.1283 O.3     1  ZINC000047262406   -0.2200
     14 N14        -7.6121    0.9856   52.8150 N.3     1  ZINC000047262406   -0.5200
     15 C15        -7.1813    2.3441   52.4608 C.3     1  ZINC000047262406    0.0500
     16 C16        -5.8569    2.2777   51.6968 C.3     1  ZINC000047262406   -0.1000
     17 C17        -6.0446    1.4356   50.4318 C.3     1  ZINC000047262406   -0.1100
     18 C18        -4.7292    1.3167   49.7061 C.2     1  ZINC000047262406    0.5100
     19 O19        -4.3746    0.2440   49.2654 O.2     1  ZINC000047262406   -0.4600
     20 N20        -3.9470    2.4027   49.5469 N.am    1  ZINC000047262406   -0.6600
     21 C21        -2.7296    2.2927   48.8754 C.ar    1  ZINC000047262406    0.3600
     22 C22        -1.5399    2.4317   49.5802 C.ar    1  ZINC000047262406   -0.2000
     23 C23        -0.3385    2.3200   48.9022 C.ar    1  ZINC000047262406   -0.0400
     24 C24        -0.3695    2.0720   47.5361 C.ar    1  ZINC000047262406   -0.1200
     25 Cl25        1.1085    1.9222   46.6378 Cl      1  ZINC000047262406   -0.0500
     26 C26        -1.5899    1.9450   46.8995 C.ar    1  ZINC000047262406    0.1500
     27 N27        -2.7184    2.0517   47.5739 N.ar    1  ZINC000047262406   -0.4600
     28 C28        -6.5399    0.0412   50.8253 C.3     1  ZINC000047262406   -0.1100
     29 C29        -7.8444    0.1724   51.6146 C.3     1  ZINC000047262406    0.0600
     30 H30        -9.9319    2.2432   52.2987 H       1  ZINC000047262406    0.0800
     31 H31       -10.5172    2.2912   53.9790 H       1  ZINC000047262406    0.0700
     32 H32        -9.0280    3.1567   53.5303 H       1  ZINC000047262406    0.0800
     33 H33        -7.1048    1.3469   59.7100 H       1  ZINC000047262406    0.1600
     34 H34        -7.9072    0.2402   61.8519 H       1  ZINC000047262406    0.1600
     35 H35        -9.7943   -1.4231   61.5323 H       1  ZINC000047262406    0.1800
     36 H36        -7.9392    2.8135   51.8336 H       1  ZINC000047262406    0.0400
     37 H37        -7.0474    2.9312   53.3693 H       1  ZINC000047262406    0.0900
     38 H38        -5.5453    3.2851   51.4204 H       1  ZINC000047262406    0.0800
     39 H39        -5.0949    1.8209   52.3283 H       1  ZINC000047262406    0.0900
     40 H40        -6.7775    1.9134   49.7816 H       1  ZINC000047262406    0.1000
     41 H41        -4.2306    3.2607   49.8995 H       1  ZINC000047262406    0.4200
     42 H42        -1.5527    2.6246   50.6427 H       1  ZINC000047262406    0.1500
     43 H43         0.6016    2.4237   49.4236 H       1  ZINC000047262406    0.1500
     44 H44        -1.6196    1.7525   45.8372 H       1  ZINC000047262406    0.1700
     45 H45        -6.7162   -0.5494   49.9263 H       1  ZINC000047262406    0.0700
     46 H46        -5.7886   -0.4509   51.4432 H       1  ZINC000047262406    0.0800
     47 H47        -8.1922   -0.8179   51.9085 H       1  ZINC000047262406    0.0700
     48 H48        -8.5992    0.6520   50.9914 H       1  ZINC000047262406    0.0400
@<TRIPOS>BOND
     1     1     2    1
     2     1    30    1
     3     1    31    1
     4     1    32    1
     5     2     3    1
     6     2     4    1
     7     2    14    1
     8     4    13    1
     9     4     5    2
    10     5     6    1
    11     6     7    2
    12     7     8    1
    13     7    13    1
    14     8    12    1
    15     8     9    2
    16     9    10    1
    17     9    33    1
    18    10    11    2
    19    10    34    1
    20    11    12    1
    21    11    35    1
    22    14    29    1
    23    14    15    1
    24    15    16    1
    25    15    36    1
    26    15    37    1
    27    16    17    1
    28    16    38    1
    29    16    39    1
    30    17    18    1
    31    17    28    1
    32    17    40    1
    33    18    19    2
    34    18    20   am
    35    20    21    1
    36    20    41    1
    37    21    27   ar
    38    21    22   ar
    39    22    23   ar
    40    22    42    1
    41    23    24   ar
    42    23    43    1
    43    24    25    1
    44    24    26   ar
    45    26    27   ar
    46    26    44    1
    47    28    29    1
    48    28    45    1
    49    28    46    1
    50    29    47    1
    51    29    48    1
@<TRIPOS>SUBSTRUCTURE
     1 ZINC000047262406        1 TEMP              0 ****  ****    0 ROOT


##########                                Name:    ZINC000672622940
##########                DOCK_Rotatable_Bonds:                   7
##########                         Heavy_Atoms:                  30
##########                    Molecular_Weight:             416.523
##########                DOCK_Rotatable_Bonds:                   7
##########                       Formal_Charge:          -0.0100002
##########                     HBond_Acceptors:                   9
##########                        HBond_Donors:                   1
##########                         Heavy_Atoms:                  30
##########                          Grid_Score:          -38.068428
##########                     Grid_vdw_energy:          -36.736416
##########                      Grid_es_energy:           -1.332011
##########           Internal_energy_repulsive:          158.120453

@<TRIPOS>MOLECULE
ZINC000672622940
 62 65 1 0 0
SMALL
USER_CHARGES


@<TRIPOS>ATOM
      1 C1        -10.0719   -0.1598   60.1948 C.3     1  ZINC000672622940    0.0800
      2 N2         -9.2670    0.6091   59.2424 N.am    1  ZINC000672622940   -0.6200
      3 C3         -7.9616    0.1034   58.8106 C.3     1  ZINC000672622940    0.0700
      4 C4         -9.7275    1.7818   58.7635 C.2     1  ZINC000672622940    0.5200
      5 O5        -10.8075    2.2011   59.1221 O.2     1  ZINC000672622940   -0.5300
      6 C6         -8.9003    2.5719   57.7824 C.3     1  ZINC000672622940   -0.1000
      7 H7         -9.5037    3.3775   57.3642 H       1  ZINC000672622940    0.1000
      8 C8         -7.6856    3.1641   58.4999 C.3     1  ZINC000672622940   -0.1300
      9 C9         -6.8458    3.9661   57.5039 C.3     1  ZINC000672622940   -0.1100
     10 C10        -6.3735    3.0451   56.3771 C.3     1  ZINC000672622940   -0.1300
     11 C11        -7.5882    2.4530   55.6595 C.3     1  ZINC000672622940    0.1400
     12 H12        -8.1916    3.2587   55.2414 H       1  ZINC000672622940    0.1000
     13 N13        -7.1360    1.5711   54.5805 N.am    1  ZINC000672622940   -0.6900
     14 C14        -7.8834    1.4296   53.4679 C.2     1  ZINC000672622940    0.5100
     15 O15        -8.9301    2.0338   53.3592 O.2     1  ZINC000672622940   -0.5100
     16 C16        -7.4229    0.5286   52.3681 C.2     1  ZINC000672622940    0.5100
     17 O17        -7.5582   -0.6729   52.4712 O.2     1  ZINC000672622940   -0.5200
     18 N18        -6.8575    1.0506   51.2615 N.am    1  ZINC000672622940   -0.5800
     19 C19        -6.6815    2.5028   51.1247 C.3     1  ZINC000672622940    0.0700
     20 C20        -5.2117    2.7933   50.8049 C.3     1  ZINC000672622940   -0.1200
     21 C21        -4.7940    1.9906   49.5708 C.3     1  ZINC000672622940    0.0000
     22 C22        -3.3584    2.2999   49.2328 C.2     1  ZINC000672622940    0.2000
     23 N23        -2.7206    1.9327   48.1551 N.2     1  ZINC000672622940   -0.2800
     24 N24        -1.5128    2.3716   48.1962 N.2     1  ZINC000672622940   -0.2800
     25 C25        -1.3262    3.0402   49.3033 C.2     1  ZINC000672622940    0.1500
     26 C26        -0.2878    3.8247   50.0758 C.3     1  ZINC000672622940   -0.0400
     27 C27        -1.1075    4.6165   51.1201 C.3     1  ZINC000672622940   -0.1300
     28 C28        -2.3707    3.7394   51.2614 C.3     1  ZINC000672622940    0.1000
     29 N29        -2.4907    3.0167   49.9893 N.pl3   1  ZINC000672622940   -0.4900
     30 C30        -4.9389    0.4947   49.8601 C.3     1  ZINC000672622940   -0.1200
     31 C31        -6.3999    0.1777   50.1719 C.3     1  ZINC000672622940    0.1100
     32 C32        -8.4281    1.6509   56.6555 C.3     1  ZINC000672622940   -0.1100
     33 H33        -9.8216    0.1447   61.2111 H       1  ZINC000672622940    0.0600
     34 H34       -11.1299    0.0263   60.0099 H       1  ZINC000672622940    0.0800
     35 H35        -9.8631   -1.2225   60.0722 H       1  ZINC000672622940    0.0700
     36 H36        -8.0878   -0.5172   57.9235 H       1  ZINC000672622940    0.0600
     37 H37        -7.3062    0.9424   58.5769 H       1  ZINC000672622940    0.0800
     38 H38        -7.5197   -0.4911   59.6102 H       1  ZINC000672622940    0.0700
     39 H39        -8.0221    3.8202   59.3027 H       1  ZINC000672622940    0.0800
     40 H40        -7.0822    2.3583   58.9180 H       1  ZINC000672622940    0.0700
     41 H41        -7.4492    4.7718   57.0857 H       1  ZINC000672622940    0.0700
     42 H42        -5.9805    4.3879   58.0151 H       1  ZINC000672622940    0.0700
     43 H43        -5.7752    3.6165   55.6674 H       1  ZINC000672622940    0.0700
     44 H44        -5.7701    2.2394   56.7952 H       1  ZINC000672622940    0.0700
     45 H45        -6.2987    1.0891   54.6669 H       1  ZINC000672622940    0.4100
     46 H46        -7.3115    2.8726   50.3158 H       1  ZINC000672622940    0.0700
     47 H47        -6.9562    2.9937   52.0583 H       1  ZINC000672622940    0.1400
     48 H48        -5.0862    3.8576   50.6061 H       1  ZINC000672622940    0.0800
     49 H49        -4.5910    2.5054   51.6534 H       1  ZINC000672622940    0.0800
     50 H50        -5.4315    2.2607   48.7289 H       1  ZINC000672622940    0.0900
     51 H51         0.4098    3.1493   50.5711 H       1  ZINC000672622940    0.1000
     52 H52         0.2456    4.5064   49.4132 H       1  ZINC000672622940    0.1000
     53 H53        -0.5716    4.6838   52.0668 H       1  ZINC000672622940    0.1100
     54 H54        -1.3614    5.6083   50.7459 H       1  ZINC000672622940    0.0900
     55 H55        -2.2524    3.0387   52.0880 H       1  ZINC000672622940    0.1000
     56 H56        -3.2486    4.3657   51.4200 H       1  ZINC000672622940    0.1000
     57 H57        -4.6190   -0.0771   48.9889 H       1  ZINC000672622940    0.0800
     58 H58        -4.3206    0.2285   50.7175 H       1  ZINC000672622940    0.0800
     59 H59        -6.4909   -0.8655   50.4748 H       1  ZINC000672622940    0.1000
     60 H60        -7.0099    0.3577   49.2866 H       1  ZINC000672622940    0.0800
     61 H61        -7.8246    0.8451   57.0737 H       1  ZINC000672622940    0.0800
     62 H62        -9.2934    1.2290   56.1443 H       1  ZINC000672622940    0.0800
@<TRIPOS>BOND
     1     1     2    1
     2     1    33    1
     3     1    34    1
     4     1    35    1
     5     2     3    1
     6     2     4   am
     7     3    36    1
     8     3    37    1
     9     3    38    1
    10     4     5    2
    11     4     6    1
    12     6     7    1
    13     6    32    1
    14     6     8    1
    15     8     9    1
    16     8    39    1
    17     8    40    1
    18     9    10    1
    19     9    41    1
    20     9    42    1
    21    10    11    1
    22    10    43    1
    23    10    44    1
    24    11    12    1
    25    11    13    1
    26    11    32    1
    27    13    14   am
    28    13    45    1
    29    14    15    2
    30    14    16    1
    31    16    17    2
    32    16    18   am
    33    18    31    1
    34    18    19    1
    35    19    20    1
    36    19    46    1
    37    19    47    1
    38    20    21    1
    39    20    48    1
    40    20    49    1
    41    21    22    1
    42    21    30    1
    43    21    50    1
    44    22    29    1
    45    22    23    2
    46    23    24    1
    47    24    25    2
    48    25    29    1
    49    25    26    1
    50    26    27    1
    51    26    51    1
    52    26    52    1
    53    27    28    1
    54    27    53    1
    55    27    54    1
    56    28    29    1
    57    28    55    1
    58    28    56    1
    59    30    31    1
    60    30    57    1
    61    30    58    1
    62    31    59    1
    63    31    60    1
    64    32    61    1
    65    32    62    1
@<TRIPOS>SUBSTRUCTURE
     1 ZINC000672622940        1 TEMP              0 ****  ****    0 ROOT


##########                                Name:     oleObject27.pdb
##########                DOCK_Rotatable_Bonds:                   9
##########                         Heavy_Atoms:                  35
##########                    Molecular_Weight:             513.466
##########                DOCK_Rotatable_Bonds:                   9
##########                       Formal_Charge:         0.000199873
##########                     HBond_Acceptors:                   8
##########                        HBond_Donors:                   1
##########                         Heavy_Atoms:                  35
##########                          Grid_Score:          -37.988499
##########                     Grid_vdw_energy:          -37.492958
##########                      Grid_es_energy:           -0.495539
##########           Internal_energy_repulsive:           23.472515

@<TRIPOS>MOLECULE
oleObject27.pdb
 65 68 1 0 0
SMALL
NO_CHARGES


@<TRIPOS>ATOM
      1 C          -8.6061    1.9587   62.7372 C.ar    1  UNL        -0.0620
      2 C          -9.5512    2.3655   61.7844 C.ar    1  UNL        -0.0590
      3 C          -9.8000    1.5850   60.6387 C.ar    1  UNL        -0.0456
      4 C          -9.0931    0.3714   60.4493 C.ar    1  UNL        -0.0187
      5 C          -8.1365   -0.0194   61.4120 C.ar    1  UNL        -0.0565
      6 C          -7.8956    0.7663   62.5488 C.ar    1  UNL        -0.0619
      7 C          -9.3393   -0.5070   59.2124 C.3     1  UNL         0.0921
      8 C         -10.6736   -1.2569   59.2766 C.ar    1  UNL         0.0681
      9 C         -11.0418   -2.2261   58.3100 C.ar    1  UNL        -0.0272
     10 C         -12.2932   -2.8573   58.4403 C.ar    1  UNL        -0.0559
     11 C         -13.1307   -2.5015   59.5075 C.ar    1  UNL        -0.0435
     12 C         -12.6917   -1.5198   60.4083 C.ar    1  UNL         0.0272
     13 N         -11.4968   -0.9106   60.2929 N.ar    1  UNL        -0.2587
     14 C         -10.1386   -2.5924   57.1378 C.3     1  UNL        -0.0379
     15 N          -9.2339    0.2389   57.9500 N.am    1  UNL        -0.2865
     16 C          -8.1038    0.9301   57.5519 C.2     1  UNL         0.3014
     17 O          -7.0982    0.9703   58.2411 O.2     1  UNL        -0.2541
     18 N          -8.1977    1.5771   56.3183 N.am    1  UNL        -0.2833
     19 C          -7.0715    2.3639   55.7454 C.3     1  UNL         0.0284
     20 C          -7.4574    3.3004   54.5747 C.3     1  UNL         0.0142
     21 N          -8.3181    2.6362   53.5803 N.4     1  UNL        -0.2979
     22 C          -9.5547    2.1712   54.2390 C.3     1  UNL         0.0142
     23 C          -9.2672    1.1643   55.3765 C.3     1  UNL         0.0284
     24 C          -7.5973    1.6234   52.7721 C.3     1  UNL         0.0223
     25 C          -8.1480    1.4843   51.3386 C.3     1  UNL         0.0661
     26 O          -7.5370    2.5099   50.5362 O.3     1  UNL        -0.3432
     27 C          -6.2107    2.4901   50.1497 C.ar    1  UNL         0.0937
     28 C          -5.5966    1.3255   49.6412 C.ar    1  UNL        -0.0288
     29 C          -4.2447    1.3487   49.2594 C.ar    1  UNL        -0.0408
     30 C          -3.4993    2.5317   49.3825 C.ar    1  UNL         0.0422
     31 C          -4.1029    3.6941   49.8870 C.ar    1  UNL        -0.0221
     32 C          -5.4545    3.6741   50.2694 C.ar    1  UNL         0.0723
     33 CL         -6.1786    5.1434   50.8963 Cl      1  UNL        -0.0814
     34 CL         -1.8149    2.5572   48.9058 Cl      1  UNL        -0.0843
     35 C         -10.8263    2.0819   59.6259 C.3     1  UNL        -0.0394
     36 H          -8.4214    2.5695   63.6163 H       1  UNL         0.0623
     37 H         -10.0912    3.2956   61.9380 H       1  UNL         0.0626
     38 H          -7.5672   -0.9347   61.2801 H       1  UNL         0.0627
     39 H          -7.1575    0.4513   63.2806 H       1  UNL         0.0623
     40 H          -8.5353   -1.2484   59.1873 H       1  UNL         0.0625
     41 H         -12.6145   -3.6084   57.7241 H       1  UNL         0.0627
     42 H         -14.1017   -2.9717   59.6313 H       1  UNL         0.0639
     43 H         -13.3141   -1.2113   61.2474 H       1  UNL         0.0840
     44 H          -9.8358   -1.6989   56.5775 H       1  UNL         0.0280
     45 H         -10.6435   -3.2641   56.4323 H       1  UNL         0.0280
     46 H          -9.2305   -3.1013   57.4839 H       1  UNL         0.0280
     47 H         -10.0508    0.2831   57.3573 H       1  UNL         0.1521
     48 H          -6.3075    1.6567   55.3979 H       1  UNL         0.0484
     49 H          -6.6177    2.9866   56.5262 H       1  UNL         0.0484
     50 H          -6.5467    3.6838   54.0970 H       1  UNL         0.0447
     51 H          -7.9940    4.1639   54.9890 H       1  UNL         0.0447
     52 H         -10.2450    1.7222   53.5155 H       1  UNL         0.0447
     53 H         -10.0709    3.0371   54.6736 H       1  UNL         0.0447
     54 H          -8.9772    0.2019   54.9363 H       1  UNL         0.0484
     55 H         -10.1990    1.0029   55.9336 H       1  UNL         0.0484
     56 H          -7.6352    0.6420   53.2616 H       1  UNL         0.0455
     57 H          -6.5406    1.9113   52.6981 H       1  UNL         0.0455
     58 H          -9.2383    1.6088   51.3513 H       1  UNL         0.0586
     59 H          -7.9019    0.4954   50.9332 H       1  UNL         0.0586
     60 H          -6.1538    0.4003   49.5368 H       1  UNL         0.0652
     61 H          -3.7766    0.4496   48.8685 H       1  UNL         0.0639
     62 H          -3.5252    4.6092   49.9818 H       1  UNL         0.0655
     63 H         -11.1983    3.0817   59.8820 H       1  UNL         0.0280
     64 H         -11.6938    1.4117   59.5824 H       1  UNL         0.0280
     65 H         -10.3915    2.1459   58.6208 H       1  UNL         0.0280
@<TRIPOS>BOND
     1     1     2   ar
     2     1     6   ar
     3     1    36    1
     4     2     3   ar
     5     2    37    1
     6     3     4   ar
     7     3    35    1
     8     4     5   ar
     9     4     7    1
    10     5     6   ar
    11     5    38    1
    12     6    39    1
    13     7     8    1
    14     7    15    1
    15     7    40    1
    16     8     9   ar
    17     8    13   ar
    18     9    10   ar
    19     9    14    1
    20    10    11   ar
    21    10    41    1
    22    11    12   ar
    23    11    42    1
    24    12    13   ar
    25    12    43    1
    26    14    44    1
    27    14    45    1
    28    14    46    1
    29    15    16   am
    30    15    47    1
    31    16    17    2
    32    16    18   am
    33    18    19    1
    34    18    23    1
    35    19    20    1
    36    19    48    1
    37    19    49    1
    38    20    21    1
    39    20    50    1
    40    20    51    1
    41    21    22    1
    42    21    24    1
    43    22    23    1
    44    22    52    1
    45    22    53    1
    46    23    54    1
    47    23    55    1
    48    24    25    1
    49    24    56    1
    50    24    57    1
    51    25    26    1
    52    25    58    1
    53    25    59    1
    54    26    27    1
    55    27    28   ar
    56    27    32   ar
    57    28    29   ar
    58    28    60    1
    59    29    30   ar
    60    29    61    1
    61    30    31   ar
    62    30    34    1
    63    31    32   ar
    64    31    62    1
    65    32    33    1
    66    35    63    1
    67    35    64    1
    68    35    65    1
@<TRIPOS>SUBSTRUCTURE
     1 UNL         1 TEMP              0 ****  ****    0 ROOT


##########                                Name:    ZINC000508765459
##########                DOCK_Rotatable_Bonds:                  10
##########                         Heavy_Atoms:                  29
##########                    Molecular_Weight:               405.5
##########                DOCK_Rotatable_Bonds:                  10
##########                       Formal_Charge:         -6.4075e-07
##########                     HBond_Acceptors:                  10
##########                        HBond_Donors:                   1
##########                         Heavy_Atoms:                  29
##########                          Grid_Score:          -37.986572
##########                     Grid_vdw_energy:          -36.976898
##########                      Grid_es_energy:           -1.009674
##########           Internal_energy_repulsive:           16.320757

@<TRIPOS>MOLECULE
ZINC000508765459
 60 62 1 0 0
SMALL
USER_CHARGES


@<TRIPOS>ATOM
      1 C1         -0.4291    3.0661   49.8373 C.3     1  ZINC000508765459    0.0300
      2 O2         -1.3800    3.9459   50.4406 O.3     1  ZINC000508765459   -0.3900
      3 C3         -2.5855    3.3014   50.8569 C.3     1  ZINC000508765459    0.0500
      4 C4         -3.6462    3.4485   49.7641 C.3     1  ZINC000508765459    0.1100
      5 N5         -4.8308    2.6658   50.1249 N.am    1  ZINC000508765459   -0.5900
      6 C6         -5.8283    3.3003   50.9758 C.3     1  ZINC000508765459    0.1000
      7 C7         -7.1876    2.6151   50.8219 C.3     1  ZINC000508765459    0.1200
      8 N8         -6.9794    1.1591   50.8957 N.am    1  ZINC000508765459   -0.6400
      9 C9         -7.5494    0.4176   51.8661 C.2     1  ZINC000508765459    0.7100
     10 O10        -7.3598   -0.7828   51.9046 O.2     1  ZINC000508765459   -0.5800
     11 N11        -8.3296    1.0067   52.7938 N.am    1  ZINC000508765459   -0.7400
     12 C12        -8.9478    0.2009   53.8497 C.3     1  ZINC000508765459    0.1400
     13 C13        -9.8801    1.0819   54.6838 C.3     1  ZINC000508765459   -0.1400
     14 C14        -9.7645    0.6933   56.1590 C.3     1  ZINC000508765459    0.0600
     15 N15       -10.9496   -0.0782   56.5565 N.3     1  ZINC000508765459   -0.5400
     16 C16       -11.1692    0.0034   58.0073 C.3     1  ZINC000508765459    0.0500
     17 C17       -12.4542   -0.7450   58.3690 C.3     1  ZINC000508765459    0.0700
     18 N18       -12.3419   -2.1443   57.9342 N.3     1  ZINC000508765459   -0.4600
     19 C19       -13.4587   -2.8712   58.3086 C.ar    1  ZINC000508765459    0.4900
     20 N20       -13.9397   -3.7890   57.4830 N.ar    1  ZINC000508765459   -0.5500
     21 C21       -15.0052   -4.5012   57.8104 C.ar    1  ZINC000508765459    0.1700
     22 C22       -15.6182   -4.2775   59.0332 C.ar    1  ZINC000508765459   -0.2600
     23 C23       -15.0890   -3.3099   59.8727 C.ar    1  ZINC000508765459    0.1700
     24 N24       -14.0181   -2.6363   59.4865 N.ar    1  ZINC000508765459   -0.5300
     25 C25       -12.1224   -2.2260   56.4835 C.3     1  ZINC000508765459    0.0700
     26 C26       -10.8374   -1.4775   56.1217 C.3     1  ZINC000508765459    0.0600
     27 C27        -6.1248    0.5472   49.8673 C.3     1  ZINC000508765459    0.1000
     28 C28        -4.9228    1.4240   49.6468 C.2     1  ZINC000508765459    0.5100
     29 O29        -3.9904    0.9785   49.0119 O.2     1  ZINC000508765459   -0.5400
     30 H30        -0.8698    2.6061   48.9528 H       1  ZINC000508765459    0.0400
     31 H31         0.4572    3.6315   49.5492 H       1  ZINC000508765459    0.0900
     32 H32        -0.1494    2.2899   50.5495 H       1  ZINC000508765459    0.0400
     33 H33        -2.3899    2.2437   51.0333 H       1  ZINC000508765459    0.0500
     34 H34        -2.9451    3.7627   51.7768 H       1  ZINC000508765459    0.0600
     35 H35        -3.9212    4.4984   49.6636 H       1  ZINC000508765459    0.1100
     36 H36        -3.2454    3.0857   48.8176 H       1  ZINC000508765459    0.0900
     37 H37        -5.5082    3.2328   52.0155 H       1  ZINC000508765459    0.0700
     38 H38        -5.9220    4.3499   50.6973 H       1  ZINC000508765459    0.1000
     39 H39        -7.8525    2.9328   51.6251 H       1  ZINC000508765459    0.1200
     40 H40        -7.6238    2.8759   49.8578 H       1  ZINC000508765459    0.0800
     41 H41        -8.4818    1.9641   52.7624 H       1  ZINC000508765459    0.4000
     42 H42        -9.5205   -0.6101   53.3997 H       1  ZINC000508765459    0.0700
     43 H43        -8.1709   -0.2151   54.4911 H       1  ZINC000508765459    0.0700
     44 H44        -9.5985    2.1277   54.5603 H       1  ZINC000508765459    0.0700
     45 H45       -10.9082    0.9406   54.3504 H       1  ZINC000508765459    0.0800
     46 H46        -8.8704    0.0875   56.3063 H       1  ZINC000508765459    0.0800
     47 H47        -9.6969    1.5949   56.7680 H       1  ZINC000508765459    0.0400
     48 H48       -10.3257   -0.4490   58.5287 H       1  ZINC000508765459    0.0500
     49 H49       -11.2616    1.0486   58.3027 H       1  ZINC000508765459    0.0900
     50 H50       -12.6037   -0.7104   59.4481 H       1  ZINC000508765459    0.0900
     51 H51       -13.3015   -0.2758   57.8690 H       1  ZINC000508765459    0.0600
     52 H52       -15.3928   -5.2478   57.1331 H       1  ZINC000508765459    0.1700
     53 H53       -16.4898   -4.8447   59.3253 H       1  ZINC000508765459    0.1500
     54 H54       -15.5433   -3.1109   60.8321 H       1  ZINC000508765459    0.1700
     55 H55       -12.0300   -3.2711   56.1879 H       1  ZINC000508765459    0.1000
     56 H56       -12.9659   -1.7736   55.9620 H       1  ZINC000508765459    0.0500
     57 H57       -10.6880   -1.5121   55.0425 H       1  ZINC000508765459    0.0900
     58 H58        -9.9901   -1.9468   56.6217 H       1  ZINC000508765459    0.0500
     59 H59        -5.8040   -0.4402   50.1994 H       1  ZINC000508765459    0.1100
     60 H60        -6.6827    0.4573   48.9353 H       1  ZINC000508765459    0.1100
@<TRIPOS>BOND
     1     1     2    1
     2     1    30    1
     3     1    31    1
     4     1    32    1
     5     2     3    1
     6     3     4    1
     7     3    33    1
     8     3    34    1
     9     4     5    1
    10     4    35    1
    11     4    36    1
    12     5    28   am
    13     5     6    1
    14     6     7    1
    15     6    37    1
    16     6    38    1
    17     7     8    1
    18     7    39    1
    19     7    40    1
    20     8     9   am
    21     8    27    1
    22     9    10    2
    23     9    11   am
    24    11    12    1
    25    11    41    1
    26    12    13    1
    27    12    42    1
    28    12    43    1
    29    13    14    1
    30    13    44    1
    31    13    45    1
    32    14    15    1
    33    14    46    1
    34    14    47    1
    35    15    26    1
    36    15    16    1
    37    16    17    1
    38    16    48    1
    39    16    49    1
    40    17    18    1
    41    17    50    1
    42    17    51    1
    43    18    19    1
    44    18    25    1
    45    19    24   ar
    46    19    20   ar
    47    20    21   ar
    48    21    22   ar
    49    21    52    1
    50    22    23   ar
    51    22    53    1
    52    23    24   ar
    53    23    54    1
    54    25    26    1
    55    25    55    1
    56    25    56    1
    57    26    57    1
    58    26    58    1
    59    27    28    1
    60    27    59    1
    61    27    60    1
    62    28    29    2
@<TRIPOS>SUBSTRUCTURE
     1 ZINC000508765459        1 TEMP              0 ****  ****    0 ROOT


##########                                Name:    ZINC000046390957
##########                DOCK_Rotatable_Bonds:                   9
##########                         Heavy_Atoms:                  29
##########                    Molecular_Weight:             408.521
##########                DOCK_Rotatable_Bonds:                   9
##########                       Formal_Charge:           0.0100005
##########                     HBond_Acceptors:                   6
##########                        HBond_Donors:                   1
##########                         Heavy_Atoms:                  29
##########                          Grid_Score:          -37.930634
##########                     Grid_vdw_energy:          -36.314251
##########                      Grid_es_energy:           -1.616382
##########           Internal_energy_repulsive:           10.944883

@<TRIPOS>MOLECULE
ZINC000046390957
 53 55 1 0 0
SMALL
USER_CHARGES


@<TRIPOS>ATOM
      1 C1         -5.5158   -0.2273   50.0257 C.3     1  ZINC000046390957   -0.1100
      2 C2         -4.8501    1.1071   50.2433 C.ar    1  ZINC000046390957   -0.0600
      3 C3         -3.9493    1.5899   49.3143 C.ar    1  ZINC000046390957   -0.1200
      4 C4         -3.3376    2.8139   49.5134 C.ar    1  ZINC000046390957   -0.1100
      5 C5         -3.6259    3.5587   50.6424 C.ar    1  ZINC000046390957   -0.1200
      6 C6         -4.5261    3.0818   51.5749 C.ar    1  ZINC000046390957   -0.0800
      7 C7         -4.8400    3.8943   52.8046 C.3     1  ZINC000046390957   -0.1100
      8 C8         -5.1460    1.8552   51.3752 C.ar    1  ZINC000046390957    0.1300
      9 N9         -6.0589    1.3694   52.3178 N.am    1  ZINC000046390957   -0.6800
     10 C10        -7.3763    1.6100   52.1663 C.2     1  ZINC000046390957    0.5200
     11 O11        -7.7706    2.2477   51.2129 O.2     1  ZINC000046390957   -0.4900
     12 C12        -8.3595    1.0867   53.1814 C.3     1  ZINC000046390957    0.0700
     13 H13        -9.2517    1.7129   53.1794 H       1  ZINC000046390957    0.1100
     14 C14        -8.7444   -0.3505   52.8249 C.3     1  ZINC000046390957   -0.1700
     15 O15        -7.7532    1.1124   54.5006 O.3     1  ZINC000046390957   -0.3300
     16 C16        -7.7588    2.2865   55.1510 C.2     1  ZINC000046390957    0.4700
     17 O17        -8.6223    3.1000   54.9219 O.2     1  ZINC000046390957   -0.4800
     18 C18        -6.6880    2.5901   56.1671 C.3     1  ZINC000046390957   -0.0300
     19 C19        -7.2045    2.2808   57.5487 C.2     1  ZINC000046390957    0.0800
     20 C20        -7.6361    3.2273   58.3877 C.2     1  ZINC000046390957   -0.2500
     21 S21        -8.1461    2.4389   59.8785 S.3     1  ZINC000046390957    0.1300
     22 C22        -7.7282    0.9149   59.2255 C.2     1  ZINC000046390957    0.0600
     23 C23        -7.8766   -0.4015   59.9439 C.3     1  ZINC000046390957    0.0000
     24 C24        -9.2919   -0.8978   59.7957 C.ar    1  ZINC000046390957   -0.0900
     25 C25        -9.6288   -1.7189   58.7359 C.ar    1  ZINC000046390957   -0.0900
     26 C26       -10.9270   -2.1741   58.5998 C.ar    1  ZINC000046390957   -0.1200
     27 C27       -11.8880   -1.8085   59.5238 C.ar    1  ZINC000046390957   -0.1200
     28 C28       -11.5508   -0.9881   60.5840 C.ar    1  ZINC000046390957   -0.1200
     29 C29       -10.2517   -0.5364   60.7225 C.ar    1  ZINC000046390957   -0.1100
     30 N30        -7.2727    1.0547   58.0264 N.2     1  ZINC000046390957   -0.4500
     31 H31        -6.3796   -0.1003   49.3731 H       1  ZINC000046390957    0.0800
     32 H32        -4.8083   -0.9150   49.5624 H       1  ZINC000046390957    0.0700
     33 H33        -5.8410   -0.6317   50.9843 H       1  ZINC000046390957    0.0600
     34 H34        -3.7221    1.0106   48.4315 H       1  ZINC000046390957    0.1300
     35 H35        -2.6331    3.1890   48.7859 H       1  ZINC000046390957    0.1300
     36 H36        -3.1462    4.5142   50.7952 H       1  ZINC000046390957    0.1300
     37 H37        -5.6823    4.5546   52.5986 H       1  ZINC000046390957    0.0700
     38 H38        -5.0952    3.2254   53.6266 H       1  ZINC000046390957    0.0600
     39 H39        -3.9694    4.4904   53.0782 H       1  ZINC000046390957    0.0700
     40 H40        -5.7436    0.8594   53.0803 H       1  ZINC000046390957    0.4100
     41 H41        -9.1996   -0.3698   51.8347 H       1  ZINC000046390957    0.0800
     42 H42        -7.8522   -0.9768   52.8270 H       1  ZINC000046390957    0.0800
     43 H43        -9.4556   -0.7290   53.5592 H       1  ZINC000046390957    0.0800
     44 H44        -5.8091    1.9788   55.9624 H       1  ZINC000046390957    0.1200
     45 H45        -6.4191    3.6446   56.1073 H       1  ZINC000046390957    0.1300
     46 H46        -7.6669    4.2881   58.1872 H       1  ZINC000046390957    0.1800
     47 H47        -7.1892   -1.1298   59.5136 H       1  ZINC000046390957    0.1000
     48 H48        -7.6478   -0.2663   61.0010 H       1  ZINC000046390957    0.1000
     49 H49        -8.8779   -2.0046   58.0141 H       1  ZINC000046390957    0.1200
     50 H50       -11.1904   -2.8151   57.7715 H       1  ZINC000046390957    0.1200
     51 H51       -12.9024   -2.1636   59.4170 H       1  ZINC000046390957    0.1200
     52 H52       -12.3017   -0.7022   61.3057 H       1  ZINC000046390957    0.1200
     53 H53        -9.9883    0.1046   61.5508 H       1  ZINC000046390957    0.1200
@<TRIPOS>BOND
     1     1     2    1
     2     1    31    1
     3     1    32    1
     4     1    33    1
     5     2     8   ar
     6     2     3   ar
     7     3     4   ar
     8     3    34    1
     9     4     5   ar
    10     4    35    1
    11     5     6   ar
    12     5    36    1
    13     6     7    1
    14     6     8   ar
    15     7    37    1
    16     7    38    1
    17     7    39    1
    18     8     9    1
    19     9    10   am
    20     9    40    1
    21    10    11    2
    22    10    12    1
    23    12    13    1
    24    12    14    1
    25    12    15    1
    26    14    41    1
    27    14    42    1
    28    14    43    1
    29    15    16    1
    30    16    17    2
    31    16    18    1
    32    18    19    1
    33    18    44    1
    34    18    45    1
    35    19    30    1
    36    19    20    2
    37    20    21    1
    38    20    46    1
    39    21    22    1
    40    22    23    1
    41    22    30    2
    42    23    24    1
    43    23    47    1
    44    23    48    1
    45    24    29   ar
    46    24    25   ar
    47    25    26   ar
    48    25    49    1
    49    26    27   ar
    50    26    50    1
    51    27    28   ar
    52    27    51    1
    53    28    29   ar
    54    28    52    1
    55    29    53    1
@<TRIPOS>SUBSTRUCTURE
     1 ZINC000046390957        1 TEMP              0 ****  ****    0 ROOT


##########                                Name:    ZINC000770814339
##########                DOCK_Rotatable_Bonds:                  13
##########                         Heavy_Atoms:                  28
##########                    Molecular_Weight:             409.423
##########                DOCK_Rotatable_Bonds:                  13
##########                       Formal_Charge:          -0.0100008
##########                     HBond_Acceptors:                  12
##########                        HBond_Donors:                   4
##########                         Heavy_Atoms:                  28
##########                          Grid_Score:          -37.680935
##########                     Grid_vdw_energy:          -35.834839
##########                      Grid_es_energy:           -1.846097
##########           Internal_energy_repulsive:            8.839785

@<TRIPOS>MOLECULE
ZINC000770814339
 47 48 1 0 0
SMALL
USER_CHARGES


@<TRIPOS>ATOM
      1 C1         -7.7834    0.5562   64.7438 C.3     1  ZINC000770814339   -0.1500
      2 C2         -7.7579    0.2760   63.2398 C.3     1  ZINC000770814339    0.0600
      3 O3         -9.1082    0.0174   62.7727 O.3     1  ZINC000770814339   -0.3500
      4 C4         -9.2592   -0.2591   61.4680 C.2     1  ZINC000770814339    0.4700
      5 O5        -10.3591   -0.4839   61.0214 O.2     1  ZINC000770814339   -0.4800
      6 C6         -8.0567   -0.2893   60.5601 C.3     1  ZINC000770814339    0.0700
      7 O7         -8.3847   -0.9894   59.3583 O.3     1  ZINC000770814339   -0.1800
      8 N8         -8.6966   -0.1439   58.2661 N.2     1  ZINC000770814339   -0.2800
      9 C9         -9.7388   -0.3946   57.5251 C.2     1  ZINC000770814339    0.1800
     10 C10       -10.0644    0.4892   56.3808 C.2     1  ZINC000770814339    0.5900
     11 O11       -10.7021    1.5075   56.5619 O.2     1  ZINC000770814339   -0.5100
     12 N12        -9.6531    0.1634   55.1394 N.am    1  ZINC000770814339   -0.7000
     13 C13        -9.9734    1.0379   54.0086 C.3     1  ZINC000770814339    0.1500
     14 C14        -8.8093    1.0689   53.0520 C.ar    1  ZINC000770814339   -0.0600
     15 C15        -8.6469    0.0540   52.1276 C.ar    1  ZINC000770814339   -0.1200
     16 C16        -7.5790    0.0826   51.2503 C.ar    1  ZINC000770814339   -0.0200
     17 C17        -6.6739    1.1264   51.2969 C.ar    1  ZINC000770814339   -0.6700
     18 S18        -5.3125    1.1625   50.1788 S.o2    1  ZINC000770814339    2.7000
     19 N19        -3.9884    1.6683   51.0350 N.am    1  ZINC000770814339   -1.2500
     20 O20        -5.0605   -0.1864   49.8098 O.2     1  ZINC000770814339   -0.9600
     21 O21        -5.5954    2.1866   49.2351 O.2     1  ZINC000770814339   -0.9600
     22 C22        -6.8371    2.1421   52.2202 C.ar    1  ZINC000770814339   -0.0200
     23 C23        -7.9071    2.1154   53.0951 C.ar    1  ZINC000770814339   -0.1200
     24 C24       -10.5955   -1.5590   57.8255 C.2     1  ZINC000770814339    0.0600
     25 C25       -11.8973   -1.5230   58.2769 C.2     1  ZINC000770814339   -0.2000
     26 C26       -12.3289   -2.8397   58.4296 C.2     1  ZINC000770814339    0.0400
     27 N27       -11.3520   -3.6434   58.0927 N.2     1  ZINC000770814339   -0.2600
     28 N28       -10.2493   -2.8732   57.7030 N.pl3   1  ZINC000770814339   -0.4400
     29 H29        -6.7698    0.7502   65.0945 H       1  ZINC000770814339    0.0800
     30 H30        -8.4090    1.4267   64.9406 H       1  ZINC000770814339    0.0700
     31 H31        -8.1897   -0.3091   65.2677 H       1  ZINC000770814339    0.0700
     32 H32        -7.3516    1.1412   62.7159 H       1  ZINC000770814339    0.0700
     33 H33        -7.1324   -0.5947   63.0431 H       1  ZINC000770814339    0.0700
     34 H34        -7.7594    0.7307   60.3168 H       1  ZINC000770814339    0.1100
     35 H35        -7.2341   -0.7972   61.0634 H       1  ZINC000770814339    0.1100
     36 H36        -9.1450   -0.6502   54.9947 H       1  ZINC000770814339    0.4100
     37 H37       -10.8562    0.6580   53.4942 H       1  ZINC000770814339    0.0900
     38 H38       -10.1709    2.0459   54.3733 H       1  ZINC000770814339    0.0900
     39 H39        -9.3540   -0.7615   52.0913 H       1  ZINC000770814339    0.1400
     40 H40        -7.4518   -0.7108   50.5286 H       1  ZINC000770814339    0.1500
     41 H41        -3.1293    1.7550   50.5932 H       1  ZINC000770814339    0.4200
     42 H42        -4.0720    1.8780   51.9784 H       1  ZINC000770814339    0.4200
     43 H43        -6.1302    2.9578   52.2564 H       1  ZINC000770814339    0.1500
     44 H44        -8.0347    2.9090   53.8165 H       1  ZINC000770814339    0.1400
     45 H45       -12.4782   -0.6347   58.4767 H       1  ZINC000770814339    0.1700
     46 H46       -13.3071   -3.1460   58.7698 H       1  ZINC000770814339    0.1900
     47 H47        -9.3911   -3.2130   57.4050 H       1  ZINC000770814339    0.4500
@<TRIPOS>BOND
     1     1     2    1
     2     1    29    1
     3     1    30    1
     4     1    31    1
     5     2     3    1
     6     2    32    1
     7     2    33    1
     8     3     4    1
     9     4     5    2
    10     4     6    1
    11     6     7    1
    12     6    34    1
    13     6    35    1
    14     7     8    1
    15     8     9    2
    16     9    10    1
    17     9    24    1
    18    10    11    2
    19    10    12   am
    20    12    13    1
    21    12    36    1
    22    13    14    1
    23    13    37    1
    24    13    38    1
    25    14    23   ar
    26    14    15   ar
    27    15    16   ar
    28    15    39    1
    29    16    17   ar
    30    16    40    1
    31    17    18    1
    32    17    22   ar
    33    18    19   am
    34    18    20    2
    35    18    21    2
    36    19    41    1
    37    19    42    1
    38    22    23   ar
    39    22    43    1
    40    23    44    1
    41    24    28    1
    42    24    25    2
    43    25    26    1
    44    25    45    1
    45    26    27    2
    46    26    46    1
    47    27    28    1
    48    28    47    1
@<TRIPOS>SUBSTRUCTURE
     1 ZINC000770814339        1 TEMP              0 ****  ****    0 ROOT


##########                                Name:    ZINC000011620562
##########                DOCK_Rotatable_Bonds:                   9
##########                         Heavy_Atoms:                  29
##########                    Molecular_Weight:             417.448
##########                DOCK_Rotatable_Bonds:                   9
##########                       Formal_Charge:           0.0299999
##########                     HBond_Acceptors:                  12
##########                        HBond_Donors:                   1
##########                         Heavy_Atoms:                  29
##########                          Grid_Score:          -37.614975
##########                     Grid_vdw_energy:          -34.382225
##########                      Grid_es_energy:           -3.232748
##########           Internal_energy_repulsive:           13.316149

@<TRIPOS>MOLECULE
ZINC000011620562
 48 50 1 0 0
SMALL
USER_CHARGES


@<TRIPOS>ATOM
      1 C1         -5.3687    3.5499   55.9864 C.3     1  ZINC000011620562    0.0400
      2 O2         -5.8250    2.5715   56.9574 O.3     1  ZINC000011620562   -0.3500
      3 C3         -6.8934    1.8317   56.6212 C.2     1  ZINC000011620562    0.4600
      4 O4         -7.2937    0.9729   57.3709 O.2     1  ZINC000011620562   -0.5000
      5 C5         -7.5938    2.0725   55.3087 C.3     1  ZINC000011620562    0.1300
      6 N6         -6.9585    1.2687   54.2616 N.am    1  ZINC000011620562   -0.7200
      7 C7         -7.7066    0.7304   53.2781 C.2     1  ZINC000011620562    0.5400
      8 O8         -8.9054    0.9128   53.2592 O.2     1  ZINC000011620562   -0.5200
      9 C9         -7.0533   -0.0979   52.2020 C.3     1  ZINC000011620562   -0.1600
     10 S10        -5.4807    0.6617   51.7271 S.3     1  ZINC000011620562    0.1400
     11 C11        -6.0646    1.9212   50.6420 C.2     1  ZINC000011620562    0.2100
     12 N12        -7.3171    2.1454   50.3060 N.2     1  ZINC000011620562   -0.3400
     13 N13        -7.3946    3.1402   49.4977 N.2     1  ZINC000011620562   -0.0300
     14 N14        -6.2213    3.6181   49.2601 N.2     1  ZINC000011620562   -0.0800
     15 N15        -5.3091    2.8458   50.0004 N.pl3   1  ZINC000011620562   -0.2600
     16 C16        -3.9102    2.9960   50.0573 C.2     1  ZINC000011620562   -0.1300
     17 C17        -3.2338    3.8459   50.8630 C.2     1  ZINC000011620562    0.2500
     18 C18        -3.8494    4.7975   51.8562 C.3     1  ZINC000011620562   -0.1100
     19 N19        -1.8948    3.6942   50.6225 N.pl3   1  ZINC000011620562   -0.3700
     20 C20        -0.8148    4.4284   51.2863 C.3     1  ZINC000011620562    0.0900
     21 N21        -1.7349    2.7157   49.6327 N.am    1  ZINC000011620562   -0.3600
     22 C22        -0.5196    2.2687   49.1047 C.ar    1  ZINC000011620562    0.1400
     23 C23        -0.2893    2.3338   47.7365 C.ar    1  ZINC000011620562   -0.1300
     24 C24         0.9122    1.8921   47.2183 C.ar    1  ZINC000011620562   -0.1000
     25 C25         1.8854    1.3854   48.0600 C.ar    1  ZINC000011620562   -0.1100
     26 C26         1.6592    1.3189   49.4226 C.ar    1  ZINC000011620562   -0.1000
     27 C27         0.4621    1.7643   49.9479 C.ar    1  ZINC000011620562   -0.1000
     28 C28        -2.9617    2.2779   49.2839 C.2     1  ZINC000011620562    0.5500
     29 O29        -3.2110    1.4258   48.4505 O.2     1  ZINC000011620562   -0.5000
     30 H30        -6.1680    4.2636   55.7865 H       1  ZINC000011620562    0.0700
     31 H31        -4.5010    4.0775   56.3825 H       1  ZINC000011620562    0.1100
     32 H32        -5.0945    3.0429   55.0612 H       1  ZINC000011620562    0.0700
     33 H33        -8.6423    1.7886   55.3989 H       1  ZINC000011620562    0.1200
     34 H34        -7.5245    3.1287   55.0483 H       1  ZINC000011620562    0.1200
     35 H35        -5.9995    1.1239   54.2760 H       1  ZINC000011620562    0.4200
     36 H36        -6.8716   -1.1046   52.5784 H       1  ZINC000011620562    0.1400
     37 H37        -7.7098   -0.1479   51.3332 H       1  ZINC000011620562    0.1400
     38 H38        -4.9346    4.6992   51.8292 H       1  ZINC000011620562    0.1000
     39 H39        -3.4880    4.5619   52.8572 H       1  ZINC000011620562    0.1000
     40 H40        -3.5706    5.8198   51.6006 H       1  ZINC000011620562    0.1000
     41 H41        -1.2409    5.1486   51.9848 H       1  ZINC000011620562    0.1100
     42 H42        -0.1794    3.7283   51.8287 H       1  ZINC000011620562    0.0900
     43 H43        -0.2206    4.9547   50.5393 H       1  ZINC000011620562    0.0900
     44 H44        -1.0492    2.7291   47.0786 H       1  ZINC000011620562    0.1300
     45 H45         1.0918    1.9420   46.1544 H       1  ZINC000011620562    0.1300
     46 H46         2.8242    1.0407   47.6521 H       1  ZINC000011620562    0.1300
     47 H47         2.4211    0.9220   50.0770 H       1  ZINC000011620562    0.1400
     48 H48         0.2861    1.7123   51.0121 H       1  ZINC000011620562    0.1400
@<TRIPOS>BOND
     1     1     2    1
     2     1    30    1
     3     1    31    1
     4     1    32    1
     5     2     3    1
     6     3     4    2
     7     3     5    1
     8     5     6    1
     9     5    33    1
    10     5    34    1
    11     6     7   am
    12     6    35    1
    13     7     8    2
    14     7     9    1
    15     9    10    1
    16     9    36    1
    17     9    37    1
    18    10    11    1
    19    11    15    1
    20    11    12    2
    21    12    13    1
    22    13    14    2
    23    14    15    1
    24    15    16    1
    25    16    28    1
    26    16    17    2
    27    17    18    1
    28    17    19    1
    29    18    38    1
    30    18    39    1
    31    18    40    1
    32    19    20    1
    33    19    21    1
    34    20    41    1
    35    20    42    1
    36    20    43    1
    37    21    22    1
    38    21    28   am
    39    22    27   ar
    40    22    23   ar
    41    23    24   ar
    42    23    44    1
    43    24    25   ar
    44    24    45    1
    45    25    26   ar
    46    25    46    1
    47    26    27   ar
    48    26    47    1
    49    27    48    1
    50    28    29    2
@<TRIPOS>SUBSTRUCTURE
     1 ZINC000011620562        1 TEMP              0 ****  ****    0 ROOT


##########                                Name:    ZINC000474251633
##########                DOCK_Rotatable_Bonds:                   8
##########                         Heavy_Atoms:                  28
##########                    Molecular_Weight:             416.931
##########                DOCK_Rotatable_Bonds:                   8
##########                       Formal_Charge:          0.00999953
##########                     HBond_Acceptors:                   8
##########                        HBond_Donors:                   2
##########                         Heavy_Atoms:                  28
##########                          Grid_Score:          -37.334534
##########                     Grid_vdw_energy:          -35.260147
##########                      Grid_es_energy:           -2.074387
##########           Internal_energy_repulsive:            6.497271

@<TRIPOS>MOLECULE
ZINC000474251633
 49 52 1 0 0
SMALL
USER_CHARGES


@<TRIPOS>ATOM
      1 O1        -10.7271    1.5157   53.5371 O.2     1  ZINC000474251633   -0.5300
      2 C2        -10.6029    0.6670   52.6797 C.2     1  ZINC000474251633    0.5100
      3 C3         -9.3715   -0.2013   52.6518 C.3     1  ZINC000474251633    0.1000
      4 N4         -8.2823    0.5172   51.9856 N.am    1  ZINC000474251633   -0.7100
      5 C5         -7.0343    0.0085   51.9955 C.2     1  ZINC000474251633    0.5900
      6 O6         -6.8124   -1.0482   52.5563 O.2     1  ZINC000474251633   -0.5000
      7 C7         -5.9424    0.7296   51.3293 C.2     1  ZINC000474251633   -0.2300
      8 C8         -5.4059    1.8738   51.7698 C.2     1  ZINC000474251633    0.0400
      9 Cl9        -5.9547    2.6565   53.2190 Cl      1  ZINC000474251633   -0.0100
     10 C10        -4.3680    2.3991   50.9809 C.ar    1  ZINC000474251633   -0.0900
     11 C11        -3.6115    3.5781   51.1800 C.ar    1  ZINC000474251633   -0.0600
     12 C12        -2.6363    3.9291   50.3000 C.ar    1  ZINC000474251633   -0.1200
     13 C13        -2.3642    3.1383   49.1907 C.ar    1  ZINC000474251633   -0.0800
     14 C14        -3.0821    1.9874   48.9698 C.ar    1  ZINC000474251633   -0.0900
     15 C15        -4.0899    1.6053   49.8610 C.ar    1  ZINC000474251633   -0.1200
     16 S16        -5.1567    0.2056   49.8504 S.3     1  ZINC000474251633    0.1700
     17 N17       -11.5687    0.4965   51.7551 N.am    1  ZINC000474251633   -0.7200
     18 C18       -12.7657    1.3406   51.7823 C.3     1  ZINC000474251633    0.2100
     19 C19       -13.3632    1.4096   50.4005 C.2     1  ZINC000474251633    0.0500
     20 N20       -14.2933    0.6209   49.9266 N.2     1  ZINC000474251633   -0.2700
     21 N21       -14.5714    1.0134   48.6108 N.pl3   1  ZINC000474251633   -0.3600
     22 C22       -15.5517    0.3938   47.7155 C.3     1  ZINC000474251633    0.1500
     23 C23       -14.8996   -0.7717   46.9435 C.3     1  ZINC000474251633   -0.1400
     24 C24       -15.2654   -2.0281   47.7722 C.3     1  ZINC000474251633   -0.1300
     25 C25       -16.7130   -1.7247   48.2320 C.3     1  ZINC000474251633   -0.1200
     26 C26       -16.7047   -0.2122   48.5348 C.3     1  ZINC000474251633   -0.1400
     27 C27       -13.7768    2.0628   48.3138 C.2     1  ZINC000474251633    0.0600
     28 C28       -13.0235    2.3318   49.4053 C.2     1  ZINC000474251633   -0.2600
     29 H29        -9.0754   -0.4448   53.6722 H       1  ZINC000474251633    0.1100
     30 H30        -9.5871   -1.1203   52.1069 H       1  ZINC000474251633    0.1100
     31 H31        -8.4594    1.3591   51.5375 H       1  ZINC000474251633    0.4100
     32 H32        -3.8105    4.2041   52.0372 H       1  ZINC000474251633    0.1300
     33 H33        -2.0674    4.8321   50.4650 H       1  ZINC000474251633    0.1400
     34 H34        -1.5868    3.4291   48.4997 H       1  ZINC000474251633    0.1400
     35 H35        -2.8674    1.3763   48.1055 H       1  ZINC000474251633    0.1400
     36 H36       -11.4710   -0.1850   51.0718 H       1  ZINC000474251633    0.4100
     37 H37       -13.4945    0.9155   52.4724 H       1  ZINC000474251633    0.0900
     38 H38       -12.4956    2.3439   52.1116 H       1  ZINC000474251633    0.0900
     39 H39       -15.9395    1.1350   47.0167 H       1  ZINC000474251633    0.1100
     40 H40       -15.3154   -0.8433   45.9383 H       1  ZINC000474251633    0.0900
     41 H41       -13.8180   -0.6438   46.9016 H       1  ZINC000474251633    0.0800
     42 H42       -15.2370   -2.9227   47.1502 H       1  ZINC000474251633    0.0800
     43 H43       -14.6012   -2.1316   48.6302 H       1  ZINC000474251633    0.0700
     44 H44       -17.4215   -1.9503   47.4351 H       1  ZINC000474251633    0.0700
     45 H45       -16.9546   -2.2924   49.1306 H       1  ZINC000474251633    0.0700
     46 H46       -16.5347   -0.0453   49.5985 H       1  ZINC000474251633    0.0700
     47 H47       -17.6520    0.2343   48.2331 H       1  ZINC000474251633    0.0800
     48 H48       -13.7500    2.5954   47.3745 H       1  ZINC000474251633    0.1700
     49 H49       -12.2859    3.1160   49.4907 H       1  ZINC000474251633    0.1500
@<TRIPOS>BOND
     1     1     2    2
     2     2     3    1
     3     2    17   am
     4     3     4    1
     5     3    29    1
     6     3    30    1
     7     4     5   am
     8     4    31    1
     9     5     6    2
    10     5     7    1
    11     7    16    1
    12     7     8    2
    13     8     9    1
    14     8    10    1
    15    10    15   ar
    16    10    11   ar
    17    11    12   ar
    18    11    32    1
    19    12    13   ar
    20    12    33    1
    21    13    14   ar
    22    13    34    1
    23    14    15   ar
    24    14    35    1
    25    15    16    1
    26    17    18    1
    27    17    36    1
    28    18    19    1
    29    18    37    1
    30    18    38    1
    31    19    28    1
    32    19    20    2
    33    20    21    1
    34    21    22    1
    35    21    27    1
    36    22    26    1
    37    22    23    1
    38    22    39    1
    39    23    24    1
    40    23    40    1
    41    23    41    1
    42    24    25    1
    43    24    42    1
    44    24    43    1
    45    25    26    1
    46    25    44    1
    47    25    45    1
    48    26    46    1
    49    26    47    1
    50    27    28    2
    51    27    48    1
    52    28    49    1
@<TRIPOS>SUBSTRUCTURE
     1 ZINC000474251633        1 TEMP              0 ****  ****    0 ROOT


##########                                Name:    ZINC000546142192
##########                DOCK_Rotatable_Bonds:                  12
##########                         Heavy_Atoms:                  31
##########                    Molecular_Weight:             420.511
##########                DOCK_Rotatable_Bonds:                  12
##########                       Formal_Charge:          -0.0599997
##########                     HBond_Acceptors:                   7
##########                        HBond_Donors:                   2
##########                         Heavy_Atoms:                  31
##########                          Grid_Score:          -37.132732
##########                     Grid_vdw_energy:          -37.929203
##########                      Grid_es_energy:            0.796470
##########           Internal_energy_repulsive:           13.546554

@<TRIPOS>MOLECULE
ZINC000546142192
 59 61 1 0 0
SMALL
USER_CHARGES


@<TRIPOS>ATOM
      1 C1         -0.0260    2.7241   49.5849 C.3     1  ZINC000546142192    0.0300
      2 O2         -1.2656    2.6372   50.3361 O.3     1  ZINC000546142192   -0.3600
      3 C3         -2.4087    2.7172   49.6371 C.2     1  ZINC000546142192    0.4600
      4 O4         -2.3765    2.7681   48.4303 O.2     1  ZINC000546142192   -0.5100
      5 C5         -3.7321    2.7436   50.3575 C.3     1  ZINC000546142192   -0.0800
      6 H6         -3.6476    2.1910   51.2931 H       1  ZINC000546142192    0.1100
      7 C7         -4.1222    4.1929   50.6546 C.3     1  ZINC000546142192   -0.1500
      8 C8         -4.8043    2.0968   49.4782 C.3     1  ZINC000546142192   -0.0600
      9 C9         -5.8599    1.4701   50.3523 C.ar    1  ZINC000546142192   -0.1000
     10 C10        -7.0877    2.0884   50.5022 C.ar    1  ZINC000546142192   -0.0900
     11 C11        -8.0574    1.5164   51.3023 C.ar    1  ZINC000546142192   -0.1200
     12 C12        -7.7983    0.3192   51.9564 C.ar    1  ZINC000546142192    0.1600
     13 N13        -8.7789   -0.2633   52.7674 N.am    1  ZINC000546142192   -0.6900
     14 C14        -8.9288    0.1459   54.0428 C.2     1  ZINC000546142192    0.7100
     15 O15        -8.2122    1.0211   54.4887 O.2     1  ZINC000546142192   -0.5700
     16 N16        -9.8731   -0.4150   54.8239 N.am    1  ZINC000546142192   -0.7400
     17 C17       -10.0350    0.0287   56.2107 C.3     1  ZINC000546142192    0.2300
     18 C18       -10.6500   -1.0806   57.0244 C.2     1  ZINC000546142192    0.1800
     19 N19       -11.4321   -2.0181   56.5637 N.2     1  ZINC000546142192   -0.4700
     20 C20       -11.7886   -2.8308   57.5694 C.2     1  ZINC000546142192   -0.0300
     21 C21       -11.2052   -2.3798   58.6963 C.2     1  ZINC000546142192   -0.0400
     22 N22       -10.4785   -1.2726   58.3501 N.pl3   1  ZINC000546142192   -0.4500
     23 C23        -9.6721   -0.4453   59.2511 C.3     1  ZINC000546142192    0.1100
     24 C24       -10.1353   -0.6613   60.6931 C.3     1  ZINC000546142192   -0.0900
     25 C25        -9.2750    0.1534   61.6245 C.ar    1  ZINC000546142192   -0.0900
     26 C26        -8.8426    1.4101   61.2442 C.ar    1  ZINC000546142192   -0.1100
     27 C27        -8.0536    2.1573   62.0986 C.ar    1  ZINC000546142192   -0.1200
     28 C28        -7.6973    1.6480   63.3333 C.ar    1  ZINC000546142192   -0.1200
     29 C29        -8.1304    0.3916   63.7139 C.ar    1  ZINC000546142192   -0.1200
     30 C30        -8.9230   -0.3539   62.8613 C.ar    1  ZINC000546142192   -0.1100
     31 C31        -6.5644   -0.2992   51.8037 C.ar    1  ZINC000546142192   -0.1500
     32 C32        -5.6007    0.2752   50.9981 C.ar    1  ZINC000546142192   -0.0900
     33 H33         0.0162    3.6800   49.0629 H       1  ZINC000546142192    0.0600
     34 H34         0.8194    2.6457   50.2684 H       1  ZINC000546142192    0.1000
     35 H35         0.0168    1.9117   48.8594 H       1  ZINC000546142192    0.0600
     36 H36        -4.2068    4.7455   49.7189 H       1  ZINC000546142192    0.0600
     37 H37        -5.0795    4.2119   51.1755 H       1  ZINC000546142192    0.0800
     38 H38        -3.3584    4.6536   51.2809 H       1  ZINC000546142192    0.0700
     39 H39        -5.2615    2.8567   48.8445 H       1  ZINC000546142192    0.0800
     40 H40        -4.3474    1.3294   48.8533 H       1  ZINC000546142192    0.0800
     41 H41        -7.2884    3.0196   49.9936 H       1  ZINC000546142192    0.1300
     42 H42        -9.0159    1.9999   51.4193 H       1  ZINC000546142192    0.1400
     43 H43        -9.3506   -0.9615   52.4117 H       1  ZINC000546142192    0.4100
     44 H44       -10.4457   -1.1122   54.4678 H       1  ZINC000546142192    0.4000
     45 H45        -9.0605    0.2864   56.6258 H       1  ZINC000546142192    0.0800
     46 H46       -10.6848    0.9033   56.2389 H       1  ZINC000546142192    0.1000
     47 H47       -12.4309   -3.6954   57.4896 H       1  ZINC000546142192    0.1700
     48 H48       -11.2908   -2.8111   59.6826 H       1  ZINC000546142192    0.1800
     49 H49        -8.6228   -0.7261   59.1605 H       1  ZINC000546142192    0.1000
     50 H50        -9.7915    0.6048   58.9845 H       1  ZINC000546142192    0.0900
     51 H51       -11.1748   -0.3485   60.7917 H       1  ZINC000546142192    0.0800
     52 H52       -10.0480   -1.7175   60.9485 H       1  ZINC000546142192    0.0800
     53 H53        -9.1210    1.8080   60.2796 H       1  ZINC000546142192    0.1200
     54 H54        -7.7153    3.1389   61.8012 H       1  ZINC000546142192    0.1200
     55 H55        -7.0802    2.2315   64.0005 H       1  ZINC000546142192    0.1200
     56 H56        -7.8517   -0.0064   64.6784 H       1  ZINC000546142192    0.1200
     57 H57        -9.2614   -1.3354   63.1586 H       1  ZINC000546142192    0.1200
     58 H58        -6.3599   -1.2305   52.3111 H       1  ZINC000546142192    0.1300
     59 H59        -4.6409   -0.2055   50.8786 H       1  ZINC000546142192    0.1300
@<TRIPOS>BOND
     1     1     2    1
     2     1    33    1
     3     1    34    1
     4     1    35    1
     5     2     3    1
     6     3     4    2
     7     3     5    1
     8     5     6    1
     9     5     7    1
    10     5     8    1
    11     7    36    1
    12     7    37    1
    13     7    38    1
    14     8     9    1
    15     8    39    1
    16     8    40    1
    17     9    32   ar
    18     9    10   ar
    19    10    11   ar
    20    10    41    1
    21    11    12   ar
    22    11    42    1
    23    12    13    1
    24    12    31   ar
    25    13    14   am
    26    13    43    1
    27    14    15    2
    28    14    16   am
    29    16    17    1
    30    16    44    1
    31    17    18    1
    32    17    45    1
    33    17    46    1
    34    18    22    1
    35    18    19    2
    36    19    20    1
    37    20    21    2
    38    20    47    1
    39    21    22    1
    40    21    48    1
    41    22    23    1
    42    23    24    1
    43    23    49    1
    44    23    50    1
    45    24    25    1
    46    24    51    1
    47    24    52    1
    48    25    30   ar
    49    25    26   ar
    50    26    27   ar
    51    26    53    1
    52    27    28   ar
    53    27    54    1
    54    28    29   ar
    55    28    55    1
    56    29    30   ar
    57    29    56    1
    58    30    57    1
    59    31    32   ar
    60    31    58    1
    61    32    59    1
@<TRIPOS>SUBSTRUCTURE
     1 ZINC000546142192        1 TEMP              0 ****  ****    0 ROOT


##########                                Name:    ZINC001591898574
##########                DOCK_Rotatable_Bonds:                  10
##########                         Heavy_Atoms:                  26
##########                    Molecular_Weight:             383.434
##########                DOCK_Rotatable_Bonds:                  10
##########                       Formal_Charge:         5.96046e-08
##########                     HBond_Acceptors:                  13
##########                        HBond_Donors:                   3
##########                         Heavy_Atoms:                  26
##########                          Grid_Score:          -37.075802
##########                     Grid_vdw_energy:          -35.621353
##########                      Grid_es_energy:           -1.454449
##########           Internal_energy_repulsive:           12.773539

@<TRIPOS>MOLECULE
ZINC001591898574
 47 48 1 0 0
SMALL
USER_CHARGES


@<TRIPOS>ATOM
      1 C1         -5.7622    4.1273   55.6776 C.3     1  ZINC001591898574   -0.1100
      2 C2         -6.6475    2.9100   55.7535 C.ar    1  ZINC001591898574    0.2300
      3 C3         -6.8747    2.2853   56.9669 C.ar    1  ZINC001591898574   -0.2400
      4 C4         -7.7023    1.1601   56.9915 C.ar    1  ZINC001591898574    0.3000
      5 C5         -7.9774    0.4550   58.2680 C.2     1  ZINC001591898574    0.2100
      6 N6         -7.1760    0.3747   59.3118 N.2     1  ZINC001591898574   -0.2500
      7 N7         -7.7756   -0.3199   60.2167 N.pl3   1  ZINC001591898574   -0.2200
      8 N8         -8.9310   -0.6822   59.7797 N.2     1  ZINC001591898574   -0.0400
      9 N9         -9.0914   -0.2194   58.5864 N.2     1  ZINC001591898574   -0.2500
     10 N10        -8.2406    0.7305   55.8530 N.ar    1  ZINC001591898574   -0.5500
     11 C11        -7.9972    1.3581   54.7131 C.ar    1  ZINC001591898574    0.5800
     12 N12        -8.5729    0.8851   53.5466 N.pl3   1  ZINC001591898574   -0.7000
     13 C13        -7.7277    0.3416   52.4805 C.3     1  ZINC001591898574    0.1400
     14 C14        -7.3339    1.4651   51.5194 C.3     1  ZINC001591898574   -0.1500
     15 C15        -6.5308    0.8818   50.3549 C.3     1  ZINC001591898574    0.1200
     16 N16        -5.7276    1.9399   49.7372 N.am    1  ZINC001591898574   -0.7300
     17 C17        -4.4791    1.6730   49.3053 C.2     1  ZINC001591898574    0.4900
     18 O18        -4.0211    0.5565   49.4267 O.2     1  ZINC001591898574   -0.5300
     19 C19        -3.6522    2.7619   48.6716 C.3     1  ZINC001591898574    0.1000
     20 N20        -2.3624    2.8586   49.3596 N.am    1  ZINC001591898574   -0.9800
     21 C21        -1.1259    2.5246   48.6484 C.3     1  ZINC001591898574    0.1000
     22 S22        -2.3021    3.3454   50.9413 S.o2    1  ZINC001591898574    2.6100
     23 C23        -0.5368    3.3142   51.3575 C.3     1  ZINC001591898574   -0.6600
     24 O24        -2.7848    4.6817   50.9153 O.2     1  ZINC001591898574   -0.9500
     25 O25        -2.9991    2.3283   51.6478 O.2     1  ZINC001591898574   -0.9600
     26 N26        -7.2204    2.4303   54.6610 N.ar    1  ZINC001591898574   -0.5600
     27 H27        -6.3645    5.0242   55.8220 H       1  ZINC001591898574    0.0900
     28 H28        -5.0007    4.0719   56.4555 H       1  ZINC001591898574    0.0900
     29 H29        -5.2811    4.1663   54.7002 H       1  ZINC001591898574    0.0900
     30 H30        -6.4224    2.6585   57.8739 H       1  ZINC001591898574    0.1600
     31 H31        -7.4131   -0.5359   61.0901 H       1  ZINC001591898574    0.4800
     32 H32        -9.5361    0.9134   53.4350 H       1  ZINC001591898574    0.4200
     33 H33        -6.8292   -0.0953   52.9164 H       1  ZINC001591898574    0.0700
     34 H34        -8.2779   -0.4260   51.9363 H       1  ZINC001591898574    0.0700
     35 H35        -8.2331    1.9467   51.1353 H       1  ZINC001591898574    0.0800
     36 H36        -6.7259    2.1992   52.0482 H       1  ZINC001591898574    0.0800
     37 H37        -5.8730    0.0954   50.7250 H       1  ZINC001591898574    0.0700
     38 H38        -7.2142    0.4654   49.6148 H       1  ZINC001591898574    0.0700
     39 H39        -6.0943    2.8325   49.6391 H       1  ZINC001591898574    0.4000
     40 H40        -3.4864    2.5270   47.6203 H       1  ZINC001591898574    0.1200
     41 H41        -4.1794    3.7124   48.7528 H       1  ZINC001591898574    0.1300
     42 H42        -0.7303    3.4193   48.1677 H       1  ZINC001591898574    0.0600
     43 H43        -0.3927    2.1380   49.3562 H       1  ZINC001591898574    0.0700
     44 H44        -1.3348    1.7680   47.8921 H       1  ZINC001591898574    0.0700
     45 H45         0.0033    3.9963   50.7010 H       1  ZINC001591898574    0.1300
     46 H46        -0.4024    3.6245   52.3938 H       1  ZINC001591898574    0.1200
     47 H47        -0.1507    2.3032   51.2281 H       1  ZINC001591898574    0.1300
@<TRIPOS>BOND
     1     1     2    1
     2     1    27    1
     3     1    28    1
     4     1    29    1
     5     2    26   ar
     6     2     3   ar
     7     3     4   ar
     8     3    30    1
     9     4     5    1
    10     4    10   ar
    11     5     9    1
    12     5     6    2
    13     6     7    1
    14     7     8    1
    15     7    31    1
    16     8     9    2
    17    10    11   ar
    18    11    12    1
    19    11    26   ar
    20    12    13    1
    21    12    32    1
    22    13    14    1
    23    13    33    1
    24    13    34    1
    25    14    15    1
    26    14    35    1
    27    14    36    1
    28    15    16    1
    29    15    37    1
    30    15    38    1
    31    16    17   am
    32    16    39    1
    33    17    18    2
    34    17    19    1
    35    19    20    1
    36    19    40    1
    37    19    41    1
    38    20    21    1
    39    20    22   am
    40    21    42    1
    41    21    43    1
    42    21    44    1
    43    22    23    1
    44    22    24    2
    45    22    25    2
    46    23    45    1
    47    23    46    1
    48    23    47    1
@<TRIPOS>SUBSTRUCTURE
     1 ZINC001591898574        1 TEMP              0 ****  ****    0 ROOT


##########                                Name:    ZINC000428266315
##########                DOCK_Rotatable_Bonds:                  10
##########                         Heavy_Atoms:                  30
##########                    Molecular_Weight:             423.438
##########                DOCK_Rotatable_Bonds:                  10
##########                       Formal_Charge:          0.00999977
##########                     HBond_Acceptors:                  10
##########                        HBond_Donors:                   0
##########                         Heavy_Atoms:                  30
##########                          Grid_Score:          -36.949867
##########                     Grid_vdw_energy:          -35.693687
##########                      Grid_es_energy:           -1.256180
##########           Internal_energy_repulsive:           12.124382

@<TRIPOS>MOLECULE
ZINC000428266315
 54 56 1 0 0
SMALL
USER_CHARGES


@<TRIPOS>ATOM
      1 C1        -12.6313    3.9991   48.5925 C.3     1  ZINC000428266315   -0.1500
      2 C2        -13.4299    3.0114   49.4455 C.3     1  ZINC000428266315    0.0600
      3 O3        -12.5398    2.2950   50.3037 O.3     1  ZINC000428266315   -0.3700
      4 C4        -13.1918    1.3675   51.1735 C.3     1  ZINC000428266315    0.1800
      5 H5        -13.9694    1.8830   51.7373 H       1  ZINC000428266315    0.0900
      6 C6        -13.8215    0.2466   50.3441 C.3     1  ZINC000428266315   -0.1700
      7 C7        -12.1844    0.7807   52.1284 C.2     1  ZINC000428266315    0.1700
      8 N8        -12.4207    0.3672   53.3373 N.2     1  ZINC000428266315   -0.3500
      9 O9        -11.4014   -0.0509   53.8449 O.3     1  ZINC000428266315    0.0800
     10 C10       -10.3873    0.0595   52.9816 C.2     1  ZINC000428266315    0.1900
     11 C11        -8.9558   -0.3459   53.2220 C.3     1  ZINC000428266315    0.1500
     12 N12        -8.0584    0.6074   52.5559 N.3     1  ZINC000428266315   -0.5300
     13 C13        -8.1491    1.9365   53.1751 C.3     1  ZINC000428266315    0.0200
     14 C14        -6.6734    0.1180   52.5605 C.3     1  ZINC000428266315    0.1400
     15 C15        -5.9238    0.7210   51.4005 C.2     1  ZINC000428266315   -0.2300
     16 C16        -5.3539    1.9480   51.3725 C.2     1  ZINC000428266315    0.0800
     17 N17        -4.7838    2.1093   50.1600 N.pl3   1  ZINC000428266315   -0.3700
     18 C18        -4.0557    3.2946   49.7006 C.3     1  ZINC000428266315    0.1700
     19 C19        -2.7379    2.8741   49.1026 C.ar    1  ZINC000428266315   -0.0800
     20 C20        -2.6987    2.3186   47.8375 C.ar    1  ZINC000428266315   -0.1000
     21 C21        -1.4898    1.9329   47.2891 C.ar    1  ZINC000428266315   -0.0700
     22 C22        -0.3200    2.1032   48.0056 C.ar    1  ZINC000428266315   -0.1700
     23 C23         0.9978    1.6823   47.4080 C.3     1  ZINC000428266315    0.5100
     24 F24         0.7765    0.7024   46.4343 F       1  ZINC000428266315   -0.1700
     25 F25         1.6191    2.7903   46.8217 F       1  ZINC000428266315   -0.1800
     26 F26         1.8211    1.1635   48.4130 F       1  ZINC000428266315   -0.1800
     27 C27        -0.3591    2.6601   49.2703 C.ar    1  ZINC000428266315   -0.0700
     28 C28        -1.5675    3.0493   49.8172 C.ar    1  ZINC000428266315   -0.0800
     29 N29        -5.0111    0.9427   49.4183 N.2     1  ZINC000428266315   -0.2900
     30 C30        -5.6890    0.1092   50.1649 C.2     1  ZINC000428266315    0.0600
     31 N31       -10.8767    0.5834   51.8837 N.2     1  ZINC000428266315   -0.4600
     32 H32       -13.3102    4.5455   47.9378 H       1  ZINC000428266315    0.0700
     33 H33       -12.1095    4.7014   49.2425 H       1  ZINC000428266315    0.0600
     34 H34       -11.9052    3.4539   47.9894 H       1  ZINC000428266315    0.0600
     35 H35       -14.1560    3.5566   50.0486 H       1  ZINC000428266315    0.0500
     36 H36       -13.9517    2.3091   48.7954 H       1  ZINC000428266315    0.0500
     37 H37       -13.0440   -0.2689   49.7803 H       1  ZINC000428266315    0.0700
     38 H38       -14.3188   -0.4609   51.0075 H       1  ZINC000428266315    0.0700
     39 H39       -14.5503    0.6711   49.6535 H       1  ZINC000428266315    0.0700
     40 H40        -8.7537   -0.3478   54.2931 H       1  ZINC000428266315    0.0800
     41 H41        -8.7886   -1.3448   52.8189 H       1  ZINC000428266315    0.1200
     42 H42        -7.8682    1.8677   54.2261 H       1  ZINC000428266315    0.0400
     43 H43        -7.4747    2.6227   52.6629 H       1  ZINC000428266315    0.0800
     44 H44        -9.1717    2.3052   53.0958 H       1  ZINC000428266315    0.0600
     45 H45        -6.1897    0.4048   53.4943 H       1  ZINC000428266315    0.0500
     46 H46        -6.6716   -0.9682   52.4690 H       1  ZINC000428266315    0.0900
     47 H47        -5.3550    2.6692   52.1765 H       1  ZINC000428266315    0.1700
     48 H48        -4.6471    3.8149   48.9472 H       1  ZINC000428266315    0.1000
     49 H49        -3.8758    3.9602   50.5448 H       1  ZINC000428266315    0.1100
     50 H50        -3.6126    2.1855   47.2777 H       1  ZINC000428266315    0.1300
     51 H51        -1.4593    1.4982   46.3008 H       1  ZINC000428266315    0.1400
     52 H52         0.5549    2.7935   49.8300 H       1  ZINC000428266315    0.1400
     53 H53        -1.5980    3.4843   50.8052 H       1  ZINC000428266315    0.1400
     54 H54        -6.0175   -0.8778   49.8744 H       1  ZINC000428266315    0.1800
@<TRIPOS>BOND
     1     1     2    1
     2     1    32    1
     3     1    33    1
     4     1    34    1
     5     2     3    1
     6     2    35    1
     7     2    36    1
     8     3     4    1
     9     4     5    1
    10     4     6    1
    11     4     7    1
    12     6    37    1
    13     6    38    1
    14     6    39    1
    15     7    31    1
    16     7     8    2
    17     8     9    1
    18     9    10    1
    19    10    11    1
    20    10    31    2
    21    11    12    1
    22    11    40    1
    23    11    41    1
    24    12    13    1
    25    12    14    1
    26    13    42    1
    27    13    43    1
    28    13    44    1
    29    14    15    1
    30    14    45    1
    31    14    46    1
    32    15    30    1
    33    15    16    2
    34    16    17    1
    35    16    47    1
    36    17    18    1
    37    17    29    1
    38    18    19    1
    39    18    48    1
    40    18    49    1
    41    19    28   ar
    42    19    20   ar
    43    20    21   ar
    44    20    50    1
    45    21    22   ar
    46    21    51    1
    47    22    23    1
    48    22    27   ar
    49    23    24    1
    50    23    25    1
    51    23    26    1
    52    27    28   ar
    53    27    52    1
    54    28    53    1
    55    29    30    2
    56    30    54    1
@<TRIPOS>SUBSTRUCTURE
     1 ZINC000428266315        1 TEMP              0 ****  ****    0 ROOT


##########                                Name:    ZINC000058174787
##########                DOCK_Rotatable_Bonds:                   9
##########                         Heavy_Atoms:                  27
##########                    Molecular_Weight:             413.882
##########                DOCK_Rotatable_Bonds:                   9
##########                       Formal_Charge:           0.0200002
##########                     HBond_Acceptors:                  10
##########                        HBond_Donors:                   1
##########                         Heavy_Atoms:                  27
##########                          Grid_Score:          -36.843185
##########                     Grid_vdw_energy:          -33.608555
##########                      Grid_es_energy:           -3.234630
##########           Internal_energy_repulsive:            5.847222

@<TRIPOS>MOLECULE
ZINC000058174787
 47 48 1 0 0
SMALL
USER_CHARGES


@<TRIPOS>ATOM
      1 C1        -14.1634    1.0001   47.9170 C.3     1  ZINC000058174787   -0.0700
      2 C2        -13.4664    1.4906   49.1599 C.2     1  ZINC000058174787    0.2100
      3 N3        -13.4612    0.8876   50.3172 N.2     1  ZINC000058174787   -0.4200
      4 C4        -12.7420    1.6099   51.1891 C.2     1  ZINC000058174787   -0.5600
      5 S5        -12.4479    1.2015   52.8777 S.o2    1  ZINC000058174787    2.7400
      6 O6        -12.0733    2.4106   53.5235 O.2     1  ZINC000058174787   -0.9500
      7 O7        -13.5484    0.4057   53.2956 O.2     1  ZINC000058174787   -0.9600
      8 N8        -11.1167    0.2173   52.9193 N.am    1  ZINC000058174787   -1.1100
      9 C9         -9.8323    0.7004   52.4064 C.3     1  ZINC000058174787    0.1300
     10 C10        -8.9132   -0.4909   52.1290 C.3     1  ZINC000058174787   -0.1200
     11 C11        -7.5519    0.0093   51.7201 C.2     1  ZINC000058174787    0.4700
     12 O12        -6.5622   -0.4171   52.2665 O.2     1  ZINC000058174787   -0.5000
     13 O13        -7.4386    0.9287   50.7486 O.3     1  ZINC000058174787   -0.3300
     14 C14        -6.2983    1.8249   50.8189 C.3     1  ZINC000058174787    0.0400
     15 H15        -6.0310    1.9916   51.8623 H       1  ZINC000058174787    0.1200
     16 C16        -6.6581    3.1604   50.1649 C.3     1  ZINC000058174787   -0.1700
     17 C17        -5.1298    1.2089   50.0933 C.2     1  ZINC000058174787    0.4000
     18 O18        -5.2636    0.1501   49.5173 O.2     1  ZINC000058174787   -0.4200
     19 C19        -3.8272    1.8919   50.0837 C.ar    1  ZINC000058174787   -0.1600
     20 C20        -3.2608    2.3420   51.2811 C.ar    1  ZINC000058174787   -0.0600
     21 C21        -2.0397    2.9807   51.2645 C.ar    1  ZINC000058174787   -0.1200
     22 C22        -1.3731    3.1775   50.0657 C.ar    1  ZINC000058174787    0.0000
     23 Cl23        0.1648    3.9825   50.0545 Cl      1  ZINC000058174787   -0.0500
     24 C24        -1.9281    2.7343   48.8759 C.ar    1  ZINC000058174787   -0.1200
     25 C25        -3.1460    2.0893   48.8778 C.ar    1  ZINC000058174787   -0.0400
     26 C26       -12.2842    2.7019   50.5476 C.2     1  ZINC000058174787    0.0700
     27 N27       -12.7389    2.6241   49.2589 N.pl3   1  ZINC000058174787   -0.4500
     28 C28       -12.4901    3.5936   48.1892 C.3     1  ZINC000058174787    0.0600
     29 H29       -13.4862    0.3629   47.3482 H       1  ZINC000058174787    0.0900
     30 H30       -15.0487    0.4298   48.1979 H       1  ZINC000058174787    0.1000
     31 H31       -14.4592    1.8528   47.3058 H       1  ZINC000058174787    0.0800
     32 H32       -11.1874   -0.6790   53.2833 H       1  ZINC000058174787    0.4200
     33 H33        -9.9956    1.2560   51.4829 H       1  ZINC000058174787    0.0900
     34 H34        -9.3679    1.3530   53.1458 H       1  ZINC000058174787    0.0900
     35 H35        -8.8220   -1.0971   53.0303 H       1  ZINC000058174787    0.1200
     36 H36        -9.3345   -1.0955   51.3258 H       1  ZINC000058174787    0.1200
     37 H37        -6.9254    2.9935   49.1214 H       1  ZINC000058174787    0.0800
     38 H38        -7.5032    3.6059   50.6896 H       1  ZINC000058174787    0.0800
     39 H39        -5.8022    3.8331   50.2176 H       1  ZINC000058174787    0.0800
     40 H40        -3.7794    2.1897   52.2161 H       1  ZINC000058174787    0.1400
     41 H41        -1.6014    3.3291   52.1881 H       1  ZINC000058174787    0.1400
     42 H42        -1.4030    2.8910   47.9453 H       1  ZINC000058174787    0.1400
     43 H43        -3.5772    1.7441   47.9498 H       1  ZINC000058174787    0.1500
     44 H44       -11.6722    3.4862   50.9682 H       1  ZINC000058174787    0.1900
     45 H45       -11.5796    3.3203   47.6558 H       1  ZINC000058174787    0.0900
     46 H46       -13.3312    3.5935   47.4960 H       1  ZINC000058174787    0.1000
     47 H47       -12.3743    4.5881   48.6199 H       1  ZINC000058174787    0.0900
@<TRIPOS>BOND
     1     1     2    1
     2     1    29    1
     3     1    30    1
     4     1    31    1
     5     2    27    1
     6     2     3    2
     7     3     4    1
     8     4     5    1
     9     4    26    2
    10     5     6    2
    11     5     7    2
    12     5     8   am
    13     8     9    1
    14     8    32    1
    15     9    10    1
    16     9    33    1
    17     9    34    1
    18    10    11    1
    19    10    35    1
    20    10    36    1
    21    11    12    2
    22    11    13    1
    23    13    14    1
    24    14    15    1
    25    14    16    1
    26    14    17    1
    27    16    37    1
    28    16    38    1
    29    16    39    1
    30    17    18    2
    31    17    19    1
    32    19    25   ar
    33    19    20   ar
    34    20    21   ar
    35    20    40    1
    36    21    22   ar
    37    21    41    1
    38    22    23    1
    39    22    24   ar
    40    24    25   ar
    41    24    42    1
    42    25    43    1
    43    26    27    1
    44    26    44    1
    45    27    28    1
    46    28    45    1
    47    28    46    1
    48    28    47    1
@<TRIPOS>SUBSTRUCTURE
     1 ZINC000058174787        1 TEMP              0 ****  ****    0 ROOT


##########                                Name:    ZINC000523153175
##########                DOCK_Rotatable_Bonds:                   9
##########                         Heavy_Atoms:                  30
##########                    Molecular_Weight:             413.603
##########                DOCK_Rotatable_Bonds:                   9
##########                       Formal_Charge:           0.0499987
##########                     HBond_Acceptors:                   5
##########                        HBond_Donors:                   1
##########                         Heavy_Atoms:                  30
##########                          Grid_Score:          -36.694466
##########                     Grid_vdw_energy:          -35.207760
##########                      Grid_es_energy:           -1.486706
##########           Internal_energy_repulsive:           36.916122

@<TRIPOS>MOLECULE
ZINC000523153175
 69 71 1 0 0
SMALL
USER_CHARGES


@<TRIPOS>ATOM
      1 C1         -9.1830    2.1721   62.8931 C.3     1  ZINC000523153175   -0.1500
      2 C2         -8.5922    0.8003   62.5610 C.3     1  ZINC000523153175   -0.0600
      3 C3         -9.1005   -0.2317   63.5696 C.3     1  ZINC000523153175   -0.1400
      4 C4         -9.0134    0.3949   61.1720 C.ar    1  ZINC000523153175   -0.0800
      5 C5         -8.0705   -0.0582   60.2684 C.ar    1  ZINC000523153175   -0.1100
      6 C6         -8.4569   -0.4301   58.9943 C.ar    1  ZINC000523153175   -0.1100
      7 C7         -9.7863   -0.3492   58.6239 C.ar    1  ZINC000523153175   -0.0800
      8 C8        -10.2075   -0.7541   57.2347 C.3     1  ZINC000523153175   -0.0300
      9 H9         -9.9512   -1.8003   57.0679 H       1  ZINC000523153175    0.0800
     10 C10       -11.7190   -0.5693   57.0859 C.3     1  ZINC000523153175   -0.1500
     11 C11        -9.4833    0.1186   56.2077 C.3     1  ZINC000523153175   -0.1300
     12 C12        -9.4641   -0.5850   54.8752 C.2     1  ZINC000523153175    0.5200
     13 O13        -9.8639   -1.7266   54.7863 O.2     1  ZINC000523153175   -0.5300
     14 N14        -9.0026    0.0542   53.7821 N.am    1  ZINC000523153175   -0.6200
     15 C15        -8.5058    1.4359   53.8692 C.3     1  ZINC000523153175    0.1100
     16 C16        -7.1200    1.4969   53.2180 C.3     1  ZINC000523153175    0.0400
     17 N17        -7.1973    0.9491   51.8572 N.3     1  ZINC000523153175   -0.5100
     18 C18        -5.9318    1.1461   51.1377 C.3     1  ZINC000523153175    0.0600
     19 H19        -5.1953    0.4259   51.4941 H       1  ZINC000523153175    0.1100
     20 C20        -6.1602    0.9426   49.6387 C.3     1  ZINC000523153175   -0.1800
     21 C21        -5.4266    2.5446   51.3836 C.2     1  ZINC000523153175    0.5200
     22 O22        -5.9698    3.4882   50.8495 O.2     1  ZINC000523153175   -0.5200
     23 N23        -4.3712    2.7464   52.1972 N.am    1  ZINC000523153175   -0.7200
     24 C24        -3.8812    4.1060   52.4376 C.3     1  ZINC000523153175    0.1400
     25 C25        -3.4208    4.2504   53.9028 C.3     1  ZINC000523153175   -0.1300
     26 C26        -1.8933    4.0001   53.8476 C.3     1  ZINC000523153175   -0.1300
     27 C27        -1.4819    4.6889   52.5227 C.3     1  ZINC000523153175   -0.1300
     28 C28        -2.6483    4.3848   51.5600 C.3     1  ZINC000523153175   -0.1300
     29 C29        -7.5777   -0.4696   51.8746 C.3     1  ZINC000523153175    0.0400
     30 C30        -8.9766   -0.6132   52.4718 C.3     1  ZINC000523153175    0.1200
     31 C31       -10.7293    0.1026   59.5280 C.ar    1  ZINC000523153175   -0.1100
     32 C32       -10.3436    0.4709   60.8033 C.ar    1  ZINC000523153175   -0.1200
     33 H33        -8.8784    2.4653   63.8977 H       1  ZINC000523153175    0.0600
     34 H34        -8.8209    2.9072   62.1744 H       1  ZINC000523153175    0.0600
     35 H35       -10.2707    2.1209   62.8436 H       1  ZINC000523153175    0.0600
     36 H36        -7.5045    0.8515   62.6104 H       1  ZINC000523153175    0.0800
     37 H37       -10.1882   -0.2829   63.5202 H       1  ZINC000523153175    0.0600
     38 H38        -8.6798   -1.2089   63.3330 H       1  ZINC000523153175    0.0600
     39 H39        -8.7959    0.0616   64.5743 H       1  ZINC000523153175    0.0600
     40 H40        -7.0319   -0.1215   60.5577 H       1  ZINC000523153175    0.1200
     41 H41        -7.7201   -0.7835   58.2880 H       1  ZINC000523153175    0.1200
     42 H42       -12.0236   -0.8621   56.0811 H       1  ZINC000523153175    0.0800
     43 H43       -12.2349   -1.1910   57.8176 H       1  ZINC000523153175    0.0600
     44 H44       -11.9752    0.4769   57.2528 H       1  ZINC000523153175    0.0500
     45 H45       -10.0043    1.0708   56.1082 H       1  ZINC000523153175    0.0900
     46 H46        -8.4604    0.2969   56.5391 H       1  ZINC000523153175    0.0900
     47 H47        -9.1875    2.1039   53.3426 H       1  ZINC000523153175    0.0800
     48 H48        -8.4323    1.7334   54.9152 H       1  ZINC000523153175    0.0900
     49 H49        -6.7837    2.5328   53.1746 H       1  ZINC000523153175    0.0900
     50 H50        -6.4153    0.9097   53.8068 H       1  ZINC000523153175    0.0400
     51 H51        -6.8967    1.6629   49.2823 H       1  ZINC000523153175    0.0700
     52 H52        -5.2212    1.0888   49.1049 H       1  ZINC000523153175    0.0700
     53 H53        -6.5256   -0.0689   49.4608 H       1  ZINC000523153175    0.0700
     54 H54        -3.9360    1.9915   52.6234 H       1  ZINC000523153175    0.4000
     55 H55        -4.6664    4.8297   52.2190 H       1  ZINC000523153175    0.0900
     56 H56        -3.6299    5.2548   54.2711 H       1  ZINC000523153175    0.0700
     57 H57        -3.9074    3.5039   54.5309 H       1  ZINC000523153175    0.0700
     58 H58        -1.3945    4.4670   54.6969 H       1  ZINC000523153175    0.0700
     59 H59        -1.6780    2.9322   53.8110 H       1  ZINC000523153175    0.0700
     60 H60        -1.3776    5.7640   52.6681 H       1  ZINC000523153175    0.0700
     61 H61        -0.5532    4.2624   52.1435 H       1  ZINC000523153175    0.0700
     62 H62        -2.4145    3.5085   50.9553 H       1  ZINC000523153175    0.0700
     63 H63        -2.8349    5.2443   50.9163 H       1  ZINC000523153175    0.0800
     64 H64        -7.5734   -0.8598   50.8568 H       1  ZINC000523153175    0.1000
     65 H65        -6.8666   -1.0294   52.4821 H       1  ZINC000523153175    0.0400
     66 H66        -9.2165   -1.6697   52.5925 H       1  ZINC000523153175    0.1000
     67 H67        -9.7062   -0.1422   51.8130 H       1  ZINC000523153175    0.0800
     68 H68       -11.7680    0.1655   59.2387 H       1  ZINC000523153175    0.1200
     69 H69       -11.0803    0.8238   61.5096 H       1  ZINC000523153175    0.1200
@<TRIPOS>BOND
     1     1     2    1
     2     1    33    1
     3     1    34    1
     4     1    35    1
     5     2     3    1
     6     2     4    1
     7     2    36    1
     8     3    37    1
     9     3    38    1
    10     3    39    1
    11     4    32   ar
    12     4     5   ar
    13     5     6   ar
    14     5    40    1
    15     6     7   ar
    16     6    41    1
    17     7     8    1
    18     7    31   ar
    19     8     9    1
    20     8    10    1
    21     8    11    1
    22    10    42    1
    23    10    43    1
    24    10    44    1
    25    11    12    1
    26    11    45    1
    27    11    46    1
    28    12    13    2
    29    12    14   am
    30    14    30    1
    31    14    15    1
    32    15    16    1
    33    15    47    1
    34    15    48    1
    35    16    17    1
    36    16    49    1
    37    16    50    1
    38    17    18    1
    39    17    29    1
    40    18    19    1
    41    18    20    1
    42    18    21    1
    43    20    51    1
    44    20    52    1
    45    20    53    1
    46    21    22    2
    47    21    23   am
    48    23    24    1
    49    23    54    1
    50    24    28    1
    51    24    25    1
    52    24    55    1
    53    25    26    1
    54    25    56    1
    55    25    57    1
    56    26    27    1
    57    26    58    1
    58    26    59    1
    59    27    28    1
    60    27    60    1
    61    27    61    1
    62    28    62    1
    63    28    63    1
    64    29    30    1
    65    29    64    1
    66    29    65    1
    67    30    66    1
    68    30    67    1
    69    31    32   ar
    70    31    68    1
    71    32    69    1
@<TRIPOS>SUBSTRUCTURE
     1 ZINC000523153175        1 TEMP              0 ****  ****    0 ROOT


##########                                Name:    ZINC001362587626
##########                DOCK_Rotatable_Bonds:                   9
##########                         Heavy_Atoms:                  25
##########                    Molecular_Weight:             346.346
##########                DOCK_Rotatable_Bonds:                   9
##########                       Formal_Charge:        -4.02331e-07
##########                     HBond_Acceptors:                  10
##########                        HBond_Donors:                   2
##########                         Heavy_Atoms:                  25
##########                          Grid_Score:          -36.563660
##########                     Grid_vdw_energy:          -35.432590
##########                      Grid_es_energy:           -1.131069
##########           Internal_energy_repulsive:            6.358866

@<TRIPOS>MOLECULE
ZINC001362587626
 43 45 1 0 0
SMALL
USER_CHARGES


@<TRIPOS>ATOM
      1 C1         -6.2422   -0.0968   50.1716 C.3     1  ZINC001362587626   -0.1600
      2 C2         -6.4295    1.2236   50.9214 C.3     1  ZINC001362587626    0.1300
      3 H3         -7.2212    1.8024   50.4456 H       1  ZINC001362587626    0.1200
      4 N4         -5.1791    1.9863   50.8870 N.am    1  ZINC001362587626   -0.7100
      5 C5         -4.9548    2.8682   49.8929 C.2     1  ZINC001362587626    0.5100
      6 O6         -5.7887    3.0317   49.0276 O.2     1  ZINC001362587626   -0.5000
      7 C7         -3.6677    3.6515   49.8566 C.3     1  ZINC001362587626    0.1000
      8 N8         -2.6911    2.9473   49.0220 N.pl3   1  ZINC001362587626   -0.3100
      9 C9         -1.3570    2.9249   49.1989 C.2     1  ZINC001362587626    0.1600
     10 N10        -0.8623    2.1838   48.2375 N.2     1  ZINC001362587626   -0.3000
     11 N11        -1.8416    1.7726   47.5083 N.2     1  ZINC001362587626   -0.0700
     12 N12        -2.9486    2.2276   47.9827 N.2     1  ZINC001362587626   -0.0700
     13 C13        -6.8055    0.9396   52.3527 C.2     1  ZINC001362587626    0.5100
     14 O14        -6.5872   -0.1533   52.8316 O.2     1  ZINC001362587626   -0.5200
     15 N15        -7.3844    1.8997   53.1007 N.am    1  ZINC001362587626   -0.6600
     16 C16        -7.7339    1.6356   54.4314 C.ar    1  ZINC001362587626    0.1000
     17 C17        -8.8814    0.9076   54.7167 C.ar    1  ZINC001362587626   -0.1000
     18 C18        -9.2251    0.6471   56.0285 C.ar    1  ZINC001362587626   -0.1900
     19 C19        -8.4246    1.1130   57.0612 C.ar    1  ZINC001362587626    0.1200
     20 O20        -8.7639    0.8565   58.3527 O.3     1  ZINC001362587626   -0.2800
     21 C21        -7.8423    0.0837   59.1244 C.3     1  ZINC001362587626    0.0100
     22 C22        -8.1664    0.0506   60.6300 C.3     1  ZINC001362587626    0.0200
     23 O23        -8.9216   -1.1394   60.3259 O.3     1  ZINC001362587626   -0.3700
     24 C24        -8.1547   -1.4245   59.1389 C.3     1  ZINC001362587626    0.0400
     25 C25        -7.2779    1.8400   56.7770 C.ar    1  ZINC001362587626   -0.1300
     26 C26        -6.9301    2.0967   55.4655 C.ar    1  ZINC001362587626   -0.0800
     27 H27        -5.4504   -0.6756   50.6472 H       1  ZINC001362587626    0.0700
     28 H28        -7.1725   -0.6642   50.1971 H       1  ZINC001362587626    0.0800
     29 H29        -5.9703    0.1086   49.1362 H       1  ZINC001362587626    0.0800
     30 H30        -4.5127    1.8565   51.5797 H       1  ZINC001362587626    0.4100
     31 H31        -3.8560    4.6407   49.4394 H       1  ZINC001362587626    0.1500
     32 H32        -3.2753    3.7525   50.8685 H       1  ZINC001362587626    0.1400
     33 H33        -0.8017    3.4216   49.9809 H       1  ZINC001362587626    0.2400
     34 H34        -7.5589    2.7736   52.7178 H       1  ZINC001362587626    0.4100
     35 H35        -9.5050    0.5454   53.9128 H       1  ZINC001362587626    0.1300
     36 H36       -10.1176    0.0809   56.2506 H       1  ZINC001362587626    0.1400
     37 H37        -6.8009    0.3155   58.9015 H       1  ZINC001362587626    0.0900
     38 H38        -7.2980   -0.1282   61.2641 H       1  ZINC001362587626    0.1000
     39 H39        -8.7783    0.8869   60.9678 H       1  ZINC001362587626    0.1000
     40 H40        -8.7573   -1.7582   58.2941 H       1  ZINC001362587626    0.1000
     41 H41        -7.2828   -2.0538   59.3176 H       1  ZINC001362587626    0.1000
     42 H42        -6.6551    2.2024   57.5815 H       1  ZINC001362587626    0.1400
     43 H43        -6.0370    2.6623   55.2442 H       1  ZINC001362587626    0.1500
@<TRIPOS>BOND
     1     1     2    1
     2     1    27    1
     3     1    28    1
     4     1    29    1
     5     2     3    1
     6     2     4    1
     7     2    13    1
     8     4     5   am
     9     4    30    1
    10     5     6    2
    11     5     7    1
    12     7     8    1
    13     7    31    1
    14     7    32    1
    15     8    12    1
    16     8     9    1
    17     9    10    2
    18     9    33    1
    19    10    11    1
    20    11    12    2
    21    13    14    2
    22    13    15   am
    23    15    16    1
    24    15    34    1
    25    16    26   ar
    26    16    17   ar
    27    17    18   ar
    28    17    35    1
    29    18    19   ar
    30    18    36    1
    31    19    20    1
    32    19    25   ar
    33    20    21    1
    34    21    24    1
    35    21    22    1
    36    21    37    1
    37    22    23    1
    38    22    38    1
    39    22    39    1
    40    23    24    1
    41    24    40    1
    42    24    41    1
    43    25    26   ar
    44    25    42    1
    45    26    43    1
@<TRIPOS>SUBSTRUCTURE
     1 ZINC001362587626        1 TEMP              0 ****  ****    0 ROOT


##########                                Name:    ZINC000004598904
##########                DOCK_Rotatable_Bonds:                  13
##########                         Heavy_Atoms:                  30
##########                    Molecular_Weight:             412.442
##########                DOCK_Rotatable_Bonds:                  13
##########                       Formal_Charge:          -0.0300005
##########                     HBond_Acceptors:                   8
##########                        HBond_Donors:                   2
##########                         Heavy_Atoms:                  30
##########                          Grid_Score:          -36.537895
##########                     Grid_vdw_energy:          -36.357666
##########                      Grid_es_energy:           -0.180229
##########           Internal_energy_repulsive:           10.598804

@<TRIPOS>MOLECULE
ZINC000004598904
 54 55 1 0 0
SMALL
USER_CHARGES


@<TRIPOS>ATOM
      1 C1        -15.9271   -2.8603   57.3968 C.3     1  ZINC000004598904   -0.1500
      2 C2        -14.9602   -3.9464   57.8726 C.3     1  ZINC000004598904    0.0600
      3 O3        -14.6809   -3.7606   59.2853 O.3     1  ZINC000004598904   -0.3500
      4 C4        -14.1653   -2.5720   59.6558 C.2     1  ZINC000004598904    0.5100
      5 O5        -14.5545   -2.0313   60.6719 O.2     1  ZINC000004598904   -0.5100
      6 C6        -13.1289   -1.9276   58.8281 C.ar    1  ZINC000004598904   -0.1500
      7 C7        -12.0506   -2.6763   58.3471 C.ar    1  ZINC000004598904   -0.0400
      8 C8        -11.0850   -2.0714   57.5749 C.ar    1  ZINC000004598904   -0.1400
      9 C9        -11.1811   -0.7165   57.2728 C.ar    1  ZINC000004598904    0.1800
     10 N10       -10.2014   -0.1073   56.4899 N.am    1  ZINC000004598904   -0.6700
     11 C11       -10.2477   -0.2161   55.1474 C.2     1  ZINC000004598904    0.5200
     12 O12       -11.1416   -0.8437   54.6202 O.2     1  ZINC000004598904   -0.5100
     13 C13        -9.1887    0.4425   54.3012 C.3     1  ZINC000004598904   -0.1300
     14 C14        -9.0274   -0.3324   52.9919 C.3     1  ZINC000004598904   -0.1300
     15 C15        -7.7262    0.0534   52.3368 C.2     1  ZINC000004598904    0.5200
     16 O16        -6.6729   -0.2354   52.8640 O.2     1  ZINC000004598904   -0.5100
     17 N17        -7.7330    0.7193   51.1651 N.am    1  ZINC000004598904   -0.6700
     18 C18        -6.5292    1.0762   50.5591 C.ar    1  ZINC000004598904    0.1800
     19 C19        -5.7269    0.0979   49.9799 C.ar    1  ZINC000004598904   -0.1400
     20 C20        -4.5378    0.4467   49.3807 C.ar    1  ZINC000004598904   -0.0300
     21 C21        -4.1367    1.7857   49.3541 C.ar    1  ZINC000004598904   -0.1500
     22 C22        -2.8637    2.1632   48.7127 C.2     1  ZINC000004598904    0.5100
     23 O23        -2.8133    2.3215   47.5092 O.2     1  ZINC000004598904   -0.5100
     24 O24        -1.7563    2.3328   49.4615 O.3     1  ZINC000004598904   -0.3600
     25 C25        -1.5470    3.6477   50.0407 C.3     1  ZINC000004598904    0.0600
     26 C26        -0.0931    4.0737   49.8271 C.3     1  ZINC000004598904   -0.1500
     27 C27        -4.9455    2.7660   49.9367 C.ar    1  ZINC000004598904   -0.0400
     28 C28        -6.1357    2.4106   50.5299 C.ar    1  ZINC000004598904   -0.1600
     29 C29       -12.2529    0.0318   57.7498 C.ar    1  ZINC000004598904   -0.1600
     30 C30       -13.2252   -0.5678   58.5179 C.ar    1  ZINC000004598904   -0.0300
     31 H31       -15.4771   -1.8798   57.5523 H       1  ZINC000004598904    0.0700
     32 H32       -16.1368   -2.9998   56.3362 H       1  ZINC000004598904    0.0800
     33 H33       -16.8561   -2.9277   57.9627 H       1  ZINC000004598904    0.0700
     34 H34       -15.4101   -4.9270   57.7171 H       1  ZINC000004598904    0.0700
     35 H35       -14.0310   -3.8791   57.3066 H       1  ZINC000004598904    0.0700
     36 H36       -11.9751   -3.7279   58.5815 H       1  ZINC000004598904    0.1400
     37 H37       -10.2515   -2.6490   57.2033 H       1  ZINC000004598904    0.1400
     38 H38        -9.4865    0.3946   56.9116 H       1  ZINC000004598904    0.4200
     39 H39        -9.4846    1.4684   54.0822 H       1  ZINC000004598904    0.1100
     40 H40        -8.2417    0.4448   54.8410 H       1  ZINC000004598904    0.1100
     41 H41        -9.0258   -1.4022   53.2006 H       1  ZINC000004598904    0.1100
     42 H42        -9.8551   -0.0938   52.3240 H       1  ZINC000004598904    0.1100
     43 H43        -8.5755    0.9503   50.7434 H       1  ZINC000004598904    0.4200
     44 H44        -6.0375   -0.9362   50.0007 H       1  ZINC000004598904    0.1400
     45 H45        -3.9152   -0.3132   48.9319 H       1  ZINC000004598904    0.1400
     46 H46        -2.2106    4.3664   49.5597 H       1  ZINC000004598904    0.0700
     47 H47        -1.7622    3.6128   51.1086 H       1  ZINC000004598904    0.0700
     48 H48         0.0639    5.0608   50.2618 H       1  ZINC000004598904    0.0800
     49 H49         0.5704    3.3550   50.3081 H       1  ZINC000004598904    0.0700
     50 H50         0.1220    4.1087   48.7591 H       1  ZINC000004598904    0.0700
     51 H51        -4.6387    3.8013   49.9183 H       1  ZINC000004598904    0.1400
     52 H52        -6.7613    3.1673   50.9798 H       1  ZINC000004598904    0.1400
     53 H53       -12.3243    1.0831   57.5135 H       1  ZINC000004598904    0.1400
     54 H54       -14.0568    0.0135   58.8878 H       1  ZINC000004598904    0.1400
@<TRIPOS>BOND
     1     1     2    1
     2     1    31    1
     3     1    32    1
     4     1    33    1
     5     2     3    1
     6     2    34    1
     7     2    35    1
     8     3     4    1
     9     4     5    2
    10     4     6    1
    11     6    30   ar
    12     6     7   ar
    13     7     8   ar
    14     7    36    1
    15     8     9   ar
    16     8    37    1
    17     9    10    1
    18     9    29   ar
    19    10    11   am
    20    10    38    1
    21    11    12    2
    22    11    13    1
    23    13    14    1
    24    13    39    1
    25    13    40    1
    26    14    15    1
    27    14    41    1
    28    14    42    1
    29    15    16    2
    30    15    17   am
    31    17    18    1
    32    17    43    1
    33    18    28   ar
    34    18    19   ar
    35    19    20   ar
    36    19    44    1
    37    20    21   ar
    38    20    45    1
    39    21    22    1
    40    21    27   ar
    41    22    23    2
    42    22    24    1
    43    24    25    1
    44    25    26    1
    45    25    46    1
    46    25    47    1
    47    26    48    1
    48    26    49    1
    49    26    50    1
    50    27    28   ar
    51    27    51    1
    52    28    52    1
    53    29    30   ar
    54    29    53    1
    55    30    54    1
@<TRIPOS>SUBSTRUCTURE
     1 ZINC000004598904        1 TEMP              0 ****  ****    0 ROOT


##########                                Name:    ZINC000508782983
##########                DOCK_Rotatable_Bonds:                   9
##########                         Heavy_Atoms:                  27
##########                    Molecular_Weight:             373.458
##########                DOCK_Rotatable_Bonds:                   9
##########                       Formal_Charge:          -0.0200006
##########                     HBond_Acceptors:                   9
##########                        HBond_Donors:                   2
##########                         Heavy_Atoms:                  27
##########                          Grid_Score:          -36.528679
##########                     Grid_vdw_energy:          -36.929829
##########                      Grid_es_energy:            0.401149
##########           Internal_energy_repulsive:           15.473447

@<TRIPOS>MOLECULE
ZINC000508782983
 54 56 1 0 0
SMALL
USER_CHARGES


@<TRIPOS>ATOM
      1 C1         -8.2332   -0.1218   60.7946 C.3     1  ZINC000508782983   -0.1500
      2 C2         -9.4489   -0.4946   59.9438 C.3     1  ZINC000508782983   -0.1100
      3 C3        -10.5489    0.5505   60.1405 C.3     1  ZINC000508782983   -0.1500
      4 C4         -9.0450   -0.5384   58.4687 C.3     1  ZINC000508782983    0.1000
      5 N5        -10.1288   -1.1339   57.6831 N.pl3   1  ZINC000508782983   -0.4400
      6 C6        -10.9012   -2.2043   58.0454 C.2     1  ZINC000508782983   -0.0400
      7 C7        -11.7700   -2.4164   57.0385 C.2     1  ZINC000508782983   -0.0300
      8 N8        -11.5345   -1.5004   56.0874 N.2     1  ZINC000508782983   -0.4700
      9 C9        -10.5560   -0.7257   56.4688 C.2     1  ZINC000508782983    0.1700
     10 C10        -9.9904    0.4274   55.6806 C.3     1  ZINC000508782983    0.2100
     11 N11        -9.2079   -0.0880   54.5545 N.am    1  ZINC000508782983   -0.6900
     12 C12        -9.3777    0.4308   53.3222 C.2     1  ZINC000508782983    0.5100
     13 O13       -10.1777    1.3260   53.1459 O.2     1  ZINC000508782983   -0.5100
     14 C14        -8.5807   -0.0963   52.1730 C.2     1  ZINC000508782983    0.5100
     15 O15        -9.0141   -1.0102   51.5026 O.2     1  ZINC000508782983   -0.5200
     16 N16        -7.3806    0.4434   51.8814 N.am    1  ZINC000508782983   -0.5800
     17 C17        -6.5829   -0.0561   50.7512 C.3     1  ZINC000508782983    0.0800
     18 C18        -6.1722    1.1362   49.8806 C.3     1  ZINC000508782983    0.0400
     19 N19        -5.5031    2.1416   50.7169 N.3     1  ZINC000508782983   -0.5400
     20 C20        -4.9417    3.2214   49.8943 C.3     1  ZINC000508782983    0.1400
     21 C21        -3.6767    2.7415   49.2306 C.2     1  ZINC000508782983    0.2100
     22 N22        -2.4963    2.6970   49.7855 N.2     1  ZINC000508782983   -0.4900
     23 C23        -1.6098    2.2162   48.9014 C.2     1  ZINC000508782983   -0.0300
     24 C24        -2.2655    1.9528   47.7551 C.2     1  ZINC000508782983   -0.0500
     25 N25        -3.5778    2.2809   47.9650 N.pl3   1  ZINC000508782983   -0.5600
     26 C26        -6.4136    2.6766   51.7381 C.3     1  ZINC000508782983    0.0400
     27 C27        -6.8369    1.5515   52.6811 C.3     1  ZINC000508782983    0.1100
     28 H28        -8.5210   -0.0905   61.8455 H       1  ZINC000508782983    0.0700
     29 H29        -7.4495   -0.8663   60.6545 H       1  ZINC000508782983    0.0600
     30 H30        -7.8630    0.8571   60.4900 H       1  ZINC000508782983    0.0600
     31 H31        -9.8192   -1.4735   60.2483 H       1  ZINC000508782983    0.0800
     32 H32       -10.1553    1.5403   59.9093 H       1  ZINC000508782983    0.0600
     33 H33       -11.3846    0.3278   59.4770 H       1  ZINC000508782983    0.0600
     34 H34       -10.8907    0.5280   61.1753 H       1  ZINC000508782983    0.0600
     35 H35        -8.8534    0.4743   58.1143 H       1  ZINC000508782983    0.1000
     36 H36        -8.1426   -1.1394   58.3569 H       1  ZINC000508782983    0.0900
     37 H37       -10.8278   -2.7702   58.9623 H       1  ZINC000508782983    0.1800
     38 H38       -12.5243   -3.1885   57.0031 H       1  ZINC000508782983    0.1700
     39 H39       -10.8059    1.0448   55.3039 H       1  ZINC000508782983    0.0900
     40 H40        -9.3479    1.0277   56.3249 H       1  ZINC000508782983    0.1100
     41 H41        -8.5675   -0.8028   54.6956 H       1  ZINC000508782983    0.4200
     42 H42        -5.6919   -0.5598   51.1262 H       1  ZINC000508782983    0.0800
     43 H43        -7.1793   -0.7520   50.1612 H       1  ZINC000508782983    0.1400
     44 H44        -5.4894    0.7990   49.1008 H       1  ZINC000508782983    0.0900
     45 H45        -7.0589    1.5752   49.4233 H       1  ZINC000508782983    0.0400
     46 H46        -5.6648    3.5107   49.1317 H       1  ZINC000508782983    0.0900
     47 H47        -4.7170    4.0805   50.5264 H       1  ZINC000508782983    0.0700
     48 H48        -0.5548    2.0665   49.0779 H       1  ZINC000508782983    0.1700
     49 H49        -1.8389    1.5552   46.8460 H       1  ZINC000508782983    0.1800
     50 H50        -4.3005    2.2024   47.3230 H       1  ZINC000508782983    0.4200
     51 H51        -5.9057    3.4567   52.3053 H       1  ZINC000508782983    0.1100
     52 H52        -7.2969    3.0942   51.2549 H       1  ZINC000508782983    0.0400
     53 H53        -7.5993    1.9175   53.3687 H       1  ZINC000508782983    0.1000
     54 H54        -5.9716    1.1996   53.2429 H       1  ZINC000508782983    0.0800
@<TRIPOS>BOND
     1     1     2    1
     2     1    28    1
     3     1    29    1
     4     1    30    1
     5     2     3    1
     6     2     4    1
     7     2    31    1
     8     3    32    1
     9     3    33    1
    10     3    34    1
    11     4     5    1
    12     4    35    1
    13     4    36    1
    14     5     9    1
    15     5     6    1
    16     6     7    2
    17     6    37    1
    18     7     8    1
    19     7    38    1
    20     8     9    2
    21     9    10    1
    22    10    11    1
    23    10    39    1
    24    10    40    1
    25    11    12   am
    26    11    41    1
    27    12    13    2
    28    12    14    1
    29    14    15    2
    30    14    16   am
    31    16    27    1
    32    16    17    1
    33    17    18    1
    34    17    42    1
    35    17    43    1
    36    18    19    1
    37    18    44    1
    38    18    45    1
    39    19    20    1
    40    19    26    1
    41    20    21    1
    42    20    46    1
    43    20    47    1
    44    21    25    1
    45    21    22    2
    46    22    23    1
    47    23    24    2
    48    23    48    1
    49    24    25    1
    50    24    49    1
    51    25    50    1
    52    26    27    1
    53    26    51    1
    54    26    52    1
    55    27    53    1
    56    27    54    1
@<TRIPOS>SUBSTRUCTURE
     1 ZINC000508782983        1 TEMP              0 ****  ****    0 ROOT


##########                                Name:    ZINC000027473870
##########                DOCK_Rotatable_Bonds:                  10
##########                         Heavy_Atoms:                  31
##########                    Molecular_Weight:             422.502
##########                DOCK_Rotatable_Bonds:                  10
##########                       Formal_Charge:        -7.45058e-08
##########                     HBond_Acceptors:                   7
##########                        HBond_Donors:                   1
##########                         Heavy_Atoms:                  31
##########                          Grid_Score:          -36.517345
##########                     Grid_vdw_energy:          -35.136818
##########                      Grid_es_energy:           -1.380526
##########           Internal_energy_repulsive:           19.192207

@<TRIPOS>MOLECULE
ZINC000027473870
 58 60 1 0 0
SMALL
USER_CHARGES


@<TRIPOS>ATOM
      1 C1         -7.3796    3.7179   54.1585 C.3     1  ZINC000027473870   -0.1400
      2 C2         -6.8389    2.2942   54.3047 C.3     1  ZINC000027473870   -0.0800
      3 C3         -7.8238    1.3195   53.7124 C.2     1  ZINC000027473870    0.1700
      4 C4         -8.9166    0.7703   54.3533 C.2     1  ZINC000027473870   -0.2900
      5 C5         -9.3370    1.0279   55.7424 C.2     1  ZINC000027473870    0.6000
      6 O6        -10.1656    1.8864   55.9776 O.2     1  ZINC000027473870   -0.5400
      7 N7         -8.8032    0.3121   56.7519 N.am    1  ZINC000027473870   -0.7200
      8 C8         -9.2224    0.5670   58.1323 C.3     1  ZINC000027473870    0.1600
      9 C9        -10.4243   -0.2821   58.4572 C.ar    1  ZINC000027473870   -0.0900
     10 C10       -10.3190   -1.6615   58.4365 C.ar    1  ZINC000027473870   -0.1100
     11 C11       -11.4155   -2.4447   58.7324 C.ar    1  ZINC000027473870   -0.1100
     12 C12       -12.6330   -1.8424   59.0535 C.ar    1  ZINC000027473870   -0.1200
     13 C13       -13.8122   -2.6754   59.3722 C.2     1  ZINC000027473870    0.5600
     14 O14       -14.1334   -2.8564   60.5304 O.2     1  ZINC000027473870   -0.5300
     15 N15       -14.5311   -3.2340   58.3784 N.am    1  ZINC000027473870   -0.6100
     16 C16       -14.1440   -3.0158   56.9824 C.3     1  ZINC000027473870    0.1100
     17 C17       -14.5692   -4.2208   56.1410 C.3     1  ZINC000027473870   -0.1700
     18 C18       -15.6996   -4.0594   58.6941 C.3     1  ZINC000027473870    0.0900
     19 C19       -16.9764   -3.2642   58.4141 C.3     1  ZINC000027473870   -0.1800
     20 C20       -12.7324   -0.4503   59.0731 C.ar    1  ZINC000027473870   -0.0700
     21 C21       -11.6268    0.3212   58.7802 C.ar    1  ZINC000027473870   -0.1000
     22 C22        -9.5570   -0.0848   53.4280 C.2     1  ZINC000027473870    0.0900
     23 N23        -8.8864   -0.0452   52.3093 N.2     1  ZINC000027473870   -0.2800
     24 N24        -7.8039    0.8287   52.4601 N.pl3   1  ZINC000027473870   -0.3100
     25 C25        -6.8534    1.1336   51.4753 C.ar    1  ZINC000027473870    0.1300
     26 C26        -5.8628    0.2143   51.1573 C.ar    1  ZINC000027473870   -0.0900
     27 C27        -4.9277    0.5162   50.1867 C.ar    1  ZINC000027473870   -0.1300
     28 C28        -4.9778    1.7349   49.5310 C.ar    1  ZINC000027473870    0.1100
     29 F29        -4.0626    2.0284   48.5816 F       1  ZINC000027473870   -0.1300
     30 C30        -5.9653    2.6532   49.8471 C.ar    1  ZINC000027473870   -0.1400
     31 C31        -6.9051    2.3527   50.8133 C.ar    1  ZINC000027473870   -0.0700
     32 H32        -6.7105    4.4144   54.6637 H       1  ZINC000027473870    0.0700
     33 H33        -7.4420    3.9761   53.1014 H       1  ZINC000027473870    0.0700
     34 H34        -8.3716    3.7775   54.6063 H       1  ZINC000027473870    0.0500
     35 H35        -5.8864    2.2117   53.7810 H       1  ZINC000027473870    0.1200
     36 H36        -6.6935    2.0674   55.3609 H       1  ZINC000027473870    0.0800
     37 H37        -8.1414   -0.3719   56.5645 H       1  ZINC000027473870    0.4000
     38 H38        -8.4072    0.3177   58.8115 H       1  ZINC000027473870    0.0800
     39 H39        -9.4803    1.6200   58.2452 H       1  ZINC000027473870    0.0800
     40 H40        -9.3764   -2.1263   58.1878 H       1  ZINC000027473870    0.1300
     41 H41       -11.3322   -3.5213   58.7152 H       1  ZINC000027473870    0.1500
     42 H42       -14.6344   -2.1182   56.6055 H       1  ZINC000027473870    0.0800
     43 H43       -13.0629   -2.8924   56.9202 H       1  ZINC000027473870    0.0800
     44 H44       -14.2813   -4.0584   55.1023 H       1  ZINC000027473870    0.0700
     45 H45       -14.0788   -5.1183   56.5179 H       1  ZINC000027473870    0.0600
     46 H46       -15.6505   -4.3441   56.2032 H       1  ZINC000027473870    0.0600
     47 H47       -15.6879   -4.9572   58.0762 H       1  ZINC000027473870    0.0800
     48 H48       -15.6711   -4.3422   59.7465 H       1  ZINC000027473870    0.0900
     49 H49       -17.8254   -3.7640   58.8805 H       1  ZINC000027473870    0.0700
     50 H50       -16.8760   -2.2594   58.8244 H       1  ZINC000027473870    0.0700
     51 H51       -17.1374   -3.2027   57.3377 H       1  ZINC000027473870    0.0600
     52 H52       -13.6717    0.0218   59.3204 H       1  ZINC000027473870    0.1300
     53 H53       -11.7021    1.3985   58.7953 H       1  ZINC000027473870    0.1300
     54 H54       -10.4457   -0.6694   53.6145 H       1  ZINC000027473870    0.1900
     55 H55        -5.8231   -0.7362   51.6686 H       1  ZINC000027473870    0.1500
     56 H56        -4.1568   -0.1986   49.9393 H       1  ZINC000027473870    0.1500
     57 H57        -6.0025    3.6033   49.3349 H       1  ZINC000027473870    0.1500
     58 H58        -7.6752    3.0689   51.0591 H       1  ZINC000027473870    0.1400
@<TRIPOS>BOND
     1     1     2    1
     2     1    32    1
     3     1    33    1
     4     1    34    1
     5     2     3    1
     6     2    35    1
     7     2    36    1
     8     3    24    1
     9     3     4    2
    10     4     5    1
    11     4    22    1
    12     5     6    2
    13     5     7   am
    14     7     8    1
    15     7    37    1
    16     8     9    1
    17     8    38    1
    18     8    39    1
    19     9    21   ar
    20     9    10   ar
    21    10    11   ar
    22    10    40    1
    23    11    12   ar
    24    11    41    1
    25    12    13    1
    26    12    20   ar
    27    13    14    2
    28    13    15   am
    29    15    16    1
    30    15    18    1
    31    16    17    1
    32    16    42    1
    33    16    43    1
    34    17    44    1
    35    17    45    1
    36    17    46    1
    37    18    19    1
    38    18    47    1
    39    18    48    1
    40    19    49    1
    41    19    50    1
    42    19    51    1
    43    20    21   ar
    44    20    52    1
    45    21    53    1
    46    22    23    2
    47    22    54    1
    48    23    24    1
    49    24    25    1
    50    25    31   ar
    51    25    26   ar
    52    26    27   ar
    53    26    55    1
    54    27    28   ar
    55    27    56    1
    56    28    29    1
    57    28    30   ar
    58    30    31   ar
    59    30    57    1
    60    31    58    1
@<TRIPOS>SUBSTRUCTURE
     1 ZINC000027473870        1 TEMP              0 ****  ****    0 ROOT


##########                                Name:    ZINC000623695407
##########                DOCK_Rotatable_Bonds:                  10
##########                         Heavy_Atoms:                  27
##########                    Molecular_Weight:             368.479
##########                DOCK_Rotatable_Bonds:                  10
##########                       Formal_Charge:           0.0299989
##########                     HBond_Acceptors:                   6
##########                        HBond_Donors:                   2
##########                         Heavy_Atoms:                  27
##########                          Grid_Score:          -36.429871
##########                     Grid_vdw_energy:          -36.204460
##########                      Grid_es_energy:           -0.225409
##########           Internal_energy_repulsive:            9.462523

@<TRIPOS>MOLECULE
ZINC000623695407
 55 57 1 0 0
SMALL
USER_CHARGES


@<TRIPOS>ATOM
      1 C1         -3.4226    3.3381   49.1622 C.3     1  ZINC000623695407    0.0300
      2 O2         -3.2274    2.3006   50.1253 O.3     1  ZINC000623695407   -0.3200
      3 C3         -4.3389    1.6666   50.5831 C.ar    1  ZINC000623695407    0.1300
      4 C4         -4.8068    1.9223   51.8638 C.ar    1  ZINC000623695407   -0.2100
      5 C5         -5.9372    1.2770   52.3267 C.ar    1  ZINC000623695407   -0.0600
      6 C6         -6.6018    0.3766   51.5146 C.ar    1  ZINC000623695407   -0.1100
      7 C7         -7.8344   -0.3265   52.0222 C.3     1  ZINC000623695407    0.0600
      8 N8         -8.5156    0.5275   53.0044 N.3     1  ZINC000623695407   -0.4600
      9 C9         -9.2872    1.5912   52.3347 C.3     1  ZINC000623695407    0.0000
     10 C10       -10.4085    1.3422   53.3532 C.3     1  ZINC000623695407   -0.1300
     11 C11        -9.8005   -0.0658   53.4195 C.3     1  ZINC000623695407    0.0100
     12 H12       -10.2184   -0.7543   52.6850 H       1  ZINC000623695407    0.0900
     13 C13        -9.7742   -0.6524   54.8323 C.3     1  ZINC000623695407    0.1600
     14 N14       -11.1465   -0.8729   55.2953 N.am    1  ZINC000623695407   -0.7400
     15 C15       -11.3884   -1.7417   56.2969 C.2     1  ZINC000623695407    0.7100
     16 O16       -10.4678   -2.3434   56.8153 O.2     1  ZINC000623695407   -0.5900
     17 N17       -12.6508   -1.9433   56.7238 N.am    1  ZINC000623695407   -0.7400
     18 C18       -12.9138   -2.8889   57.8114 C.3     1  ZINC000623695407    0.1700
     19 H19       -12.2692   -3.7606   57.6989 H       1  ZINC000623695407    0.0900
     20 C20       -12.6288   -2.2137   59.1545 C.3     1  ZINC000623695407   -0.1600
     21 C21       -14.3787   -3.3281   57.7621 C.3     1  ZINC000623695407   -0.0900
     22 C22       -14.6321   -4.0896   56.4866 C.ar    1  ZINC000623695407   -0.0300
     23 C23       -15.0284   -3.4302   55.3331 C.ar    1  ZINC000623695407   -0.1700
     24 C24       -15.2516   -4.1619   54.1821 C.ar    1  ZINC000623695407    0.1000
     25 N25       -15.0922   -5.4709   54.1734 N.ar    1  ZINC000623695407   -0.4900
     26 C26       -14.7164   -6.1310   55.2513 C.ar    1  ZINC000623695407    0.1000
     27 C27       -14.4690   -5.4657   56.4371 C.ar    1  ZINC000623695407   -0.1700
     28 C28        -6.1377    0.1204   50.2376 C.ar    1  ZINC000623695407   -0.0700
     29 C29        -5.0109    0.7670   49.7683 C.ar    1  ZINC000623695407   -0.1500
     30 H30        -2.4574    3.7598   48.8817 H       1  ZINC000623695407    0.1000
     31 H31        -3.9099    2.9264   48.2783 H       1  ZINC000623695407    0.0600
     32 H32        -4.0495    4.1195   49.5918 H       1  ZINC000623695407    0.0600
     33 H33        -4.2876    2.6250   52.4986 H       1  ZINC000623695407    0.1300
     34 H34        -6.3018    1.4756   53.3236 H       1  ZINC000623695407    0.1200
     35 H35        -8.5066   -0.5288   51.1884 H       1  ZINC000623695407    0.0600
     36 H36        -7.5482   -1.2662   52.4945 H       1  ZINC000623695407    0.0700
     37 H37        -8.8325    2.5780   52.4221 H       1  ZINC000623695407    0.0900
     38 H38        -9.5680    1.3449   51.3108 H       1  ZINC000623695407    0.0700
     39 H39       -10.3093    1.9152   54.2752 H       1  ZINC000623695407    0.1000
     40 H40       -11.4120    1.3755   52.9290 H       1  ZINC000623695407    0.0800
     41 H41        -9.2373   -1.6011   54.8219 H       1  ZINC000623695407    0.0700
     42 H42        -9.2710    0.0424   55.5049 H       1  ZINC000623695407    0.0700
     43 H43       -11.8810   -0.3937   54.8809 H       1  ZINC000623695407    0.3900
     44 H44       -13.3850   -1.4623   56.3110 H       1  ZINC000623695407    0.3900
     45 H45       -12.8247   -2.9173   59.9636 H       1  ZINC000623695407    0.0700
     46 H46       -11.5853   -1.9009   59.1896 H       1  ZINC000623695407    0.0700
     47 H47       -13.2735   -1.3420   59.2669 H       1  ZINC000623695407    0.0600
     48 H48       -14.5948   -3.9689   58.6169 H       1  ZINC000623695407    0.1000
     49 H49       -15.0227   -2.4494   57.7947 H       1  ZINC000623695407    0.0800
     50 H50       -15.1613   -2.3585   55.3342 H       1  ZINC000623695407    0.1300
     51 H51       -15.5605   -3.6558   53.2793 H       1  ZINC000623695407    0.1500
     52 H52       -14.5966   -7.2033   55.2059 H       1  ZINC000623695407    0.1600
     53 H53       -14.1610   -6.0117   57.3166 H       1  ZINC000623695407    0.1400
     54 H54        -6.6589   -0.5832   49.6052 H       1  ZINC000623695407    0.1200
     55 H55        -4.6488    0.5667   48.7708 H       1  ZINC000623695407    0.1300
@<TRIPOS>BOND
     1     1     2    1
     2     1    30    1
     3     1    31    1
     4     1    32    1
     5     2     3    1
     6     3    29   ar
     7     3     4   ar
     8     4     5   ar
     9     4    33    1
    10     5     6   ar
    11     5    34    1
    12     6     7    1
    13     6    28   ar
    14     7     8    1
    15     7    35    1
    16     7    36    1
    17     8    11    1
    18     8     9    1
    19     9    10    1
    20     9    37    1
    21     9    38    1
    22    10    11    1
    23    10    39    1
    24    10    40    1
    25    11    12    1
    26    11    13    1
    27    13    14    1
    28    13    41    1
    29    13    42    1
    30    14    15   am
    31    14    43    1
    32    15    16    2
    33    15    17   am
    34    17    18    1
    35    17    44    1
    36    18    19    1
    37    18    20    1
    38    18    21    1
    39    20    45    1
    40    20    46    1
    41    20    47    1
    42    21    22    1
    43    21    48    1
    44    21    49    1
    45    22    27   ar
    46    22    23   ar
    47    23    24   ar
    48    23    50    1
    49    24    25   ar
    50    24    51    1
    51    25    26   ar
    52    26    27   ar
    53    26    52    1
    54    27    53    1
    55    28    29   ar
    56    28    54    1
    57    29    55    1
@<TRIPOS>SUBSTRUCTURE
     1 ZINC000623695407        1 TEMP              0 ****  ****    0 ROOT


##########                                Name:    ZINC000482846390
##########                DOCK_Rotatable_Bonds:                   9
##########                         Heavy_Atoms:                  30
##########                    Molecular_Weight:             420.469
##########                DOCK_Rotatable_Bonds:                   9
##########                       Formal_Charge:          -0.0100011
##########                     HBond_Acceptors:                  11
##########                        HBond_Donors:                   2
##########                         Heavy_Atoms:                  30
##########                          Grid_Score:          -36.388336
##########                     Grid_vdw_energy:          -35.431618
##########                      Grid_es_energy:           -0.956717
##########           Internal_energy_repulsive:           26.629871

@<TRIPOS>MOLECULE
ZINC000482846390
 58 60 1 0 0
SMALL
USER_CHARGES


@<TRIPOS>ATOM
      1 C1         -8.6430   -0.2664   62.3965 C.3     1  ZINC000482846390   -0.1000
      2 C2         -8.2954    0.2013   61.0067 C.2     1  ZINC000482846390    0.0900
      3 C3         -8.2615    1.4857   60.5823 C.2     1  ZINC000482846390   -0.2700
      4 C4         -7.8946    1.4836   59.2326 C.2     1  ZINC000482846390    0.0700
      5 C5         -7.7333    2.7006   58.3587 C.3     1  ZINC000482846390   -0.0500
      6 C6         -9.0289    2.9471   57.5832 C.3     1  ZINC000482846390    0.1500
      7 H7         -8.9895    3.9297   57.1129 H       1  ZINC000482846390    0.1000
      8 C8        -10.2177    2.8893   58.5446 C.3     1  ZINC000482846390   -0.1700
      9 N9         -9.1842    1.9181   56.5520 N.am    1  ZINC000482846390   -0.6800
     10 C10        -9.9430    2.1622   55.4653 C.2     1  ZINC000482846390    0.5100
     11 O11       -10.4963    3.2348   55.3401 O.2     1  ZINC000482846390   -0.5200
     12 C12       -10.1027    1.1118   54.4142 C.2     1  ZINC000482846390    0.5100
     13 O13       -10.9431    0.2460   54.5445 O.2     1  ZINC000482846390   -0.5100
     14 N14        -9.3137    1.1261   53.3218 N.am    1  ZINC000482846390   -0.5900
     15 C15        -8.2878    2.1649   53.1536 C.3     1  ZINC000482846390    0.0500
     16 C16        -6.9310    1.4833   52.9374 C.3     1  ZINC000482846390    0.1000
     17 N17        -7.0806    0.4601   51.8932 N.am    1  ZINC000482846390   -0.6000
     18 C18        -6.2908    0.4739   50.8011 C.2     1  ZINC000482846390    0.5200
     19 O19        -6.4237   -0.3764   49.9455 O.2     1  ZINC000482846390   -0.5000
     20 C20        -5.2514    1.5362   50.6437 C.2     1  ZINC000482846390    0.5200
     21 O21        -4.1197    1.3405   51.0356 O.2     1  ZINC000482846390   -0.5000
     22 N22        -5.5710    2.7115   50.0667 N.am    1  ZINC000482846390   -0.6000
     23 C23        -6.9379    2.9741   49.5893 C.3     1  ZINC000482846390    0.0700
     24 C24        -7.3977    4.3217   50.1569 C.3     1  ZINC000482846390    0.0500
     25 O25        -6.4178    5.3182   49.8560 O.3     1  ZINC000482846390   -0.3700
     26 C26        -5.1388    5.0791   50.4484 C.3     1  ZINC000482846390    0.0500
     27 C27        -4.5648    3.7723   49.9009 C.3     1  ZINC000482846390    0.0700
     28 C28        -8.1065   -0.5788   52.0612 C.3     1  ZINC000482846390    0.0900
     29 C29        -9.4595    0.0996   52.2801 C.3     1  ZINC000482846390    0.0900
     30 N30        -7.7147    0.2423   58.8600 N.2     1  ZINC000482846390   -0.2800
     31 N31        -7.9566   -0.5855   59.9639 N.pl3   1  ZINC000482846390   -0.4700
     32 H32        -7.7376   -0.3117   63.0016 H       1  ZINC000482846390    0.0800
     33 H33        -9.3479    0.4312   62.8489 H       1  ZINC000482846390    0.0900
     34 H34        -9.0950   -1.2568   62.3441 H       1  ZINC000482846390    0.0700
     35 H35        -8.4795    2.3584   61.1801 H       1  ZINC000482846390    0.1500
     36 H36        -7.5117    3.5679   58.9809 H       1  ZINC000482846390    0.0900
     37 H37        -6.9151    2.5383   57.6572 H       1  ZINC000482846390    0.1100
     38 H38       -10.1022    3.6549   59.3117 H       1  ZINC000482846390    0.0700
     39 H39       -11.1407    3.0648   57.9920 H       1  ZINC000482846390    0.0700
     40 H40       -10.2571    1.9067   59.0148 H       1  ZINC000482846390    0.0600
     41 H41        -8.7408    1.0611   56.6515 H       1  ZINC000482846390    0.4200
     42 H42        -8.5297    2.7812   52.2877 H       1  ZINC000482846390    0.0800
     43 H43        -8.2465    2.7865   54.0481 H       1  ZINC000482846390    0.1600
     44 H44        -6.1959    2.2237   52.6214 H       1  ZINC000482846390    0.1100
     45 H45        -6.6053    1.0139   53.8656 H       1  ZINC000482846390    0.0800
     46 H46        -6.9453    3.0128   48.5001 H       1  ZINC000482846390    0.0900
     47 H47        -7.6052    2.1839   49.9336 H       1  ZINC000482846390    0.0900
     48 H48        -8.3505    4.6004   49.7068 H       1  ZINC000482846390    0.1100
     49 H49        -7.5147    4.2409   51.2377 H       1  ZINC000482846390    0.0600
     50 H50        -4.4666    5.9026   50.2080 H       1  ZINC000482846390    0.1100
     51 H51        -5.2476    5.0009   51.5302 H       1  ZINC000482846390    0.0600
     52 H52        -3.6596    3.5108   50.4490 H       1  ZINC000482846390    0.1100
     53 H53        -4.3328    3.8884   48.8422 H       1  ZINC000482846390    0.0800
     54 H54        -8.1477   -1.2003   51.1667 H       1  ZINC000482846390    0.0900
     55 H55        -7.8644   -1.1951   52.9271 H       1  ZINC000482846390    0.0900
     56 H56       -10.1935   -0.6419   52.5960 H       1  ZINC000482846390    0.1100
     57 H57        -9.7869    0.5704   51.3533 H       1  ZINC000482846390    0.0800
     58 H58        -7.8971   -1.5536   59.9752 H       1  ZINC000482846390    0.4400
@<TRIPOS>BOND
     1     1     2    1
     2     1    32    1
     3     1    33    1
     4     1    34    1
     5     2    31    1
     6     2     3    2
     7     3     4    1
     8     3    35    1
     9     4     5    1
    10     4    30    2
    11     5     6    1
    12     5    36    1
    13     5    37    1
    14     6     7    1
    15     6     8    1
    16     6     9    1
    17     8    38    1
    18     8    39    1
    19     8    40    1
    20     9    10   am
    21     9    41    1
    22    10    11    2
    23    10    12    1
    24    12    13    2
    25    12    14   am
    26    14    29    1
    27    14    15    1
    28    15    16    1
    29    15    42    1
    30    15    43    1
    31    16    17    1
    32    16    44    1
    33    16    45    1
    34    17    18   am
    35    17    28    1
    36    18    19    2
    37    18    20    1
    38    20    21    2
    39    20    22   am
    40    22    27    1
    41    22    23    1
    42    23    24    1
    43    23    46    1
    44    23    47    1
    45    24    25    1
    46    24    48    1
    47    24    49    1
    48    25    26    1
    49    26    27    1
    50    26    50    1
    51    26    51    1
    52    27    52    1
    53    27    53    1
    54    28    29    1
    55    28    54    1
    56    28    55    1
    57    29    56    1
    58    29    57    1
    59    30    31    1
    60    31    58    1
@<TRIPOS>SUBSTRUCTURE
     1 ZINC000482846390        1 TEMP              0 ****  ****    0 ROOT


##########                                Name:    ZINC000479580180
##########                DOCK_Rotatable_Bonds:                   5
##########                         Heavy_Atoms:                  30
##########                    Molecular_Weight:             404.444
##########                DOCK_Rotatable_Bonds:                   5
##########                       Formal_Charge:           0.0299995
##########                     HBond_Acceptors:                   7
##########                        HBond_Donors:                   1
##########                         Heavy_Atoms:                  30
##########                          Grid_Score:          -36.356285
##########                     Grid_vdw_energy:          -34.658672
##########                      Grid_es_energy:           -1.697613
##########           Internal_energy_repulsive:           13.091996

@<TRIPOS>MOLECULE
ZINC000479580180
 51 55 1 0 0
SMALL
USER_CHARGES


@<TRIPOS>ATOM
      1 O1         -4.0225    0.2936   49.2472 O.2     1  ZINC000479580180   -0.5200
      2 C2         -4.6784    1.2710   49.5394 C.2     1  ZINC000479580180    0.5200
      3 C3         -4.1656    2.6490   49.2087 C.3     1  ZINC000479580180   -0.0700
      4 C4         -2.7073    2.5666   48.8377 C.2     1  ZINC000479580180   -0.1600
      5 C5         -2.1989    2.3187   47.6233 C.2     1  ZINC000479580180    0.0300
      6 O6         -0.8550    2.3220   47.6738 O.3     1  ZINC000479580180   -0.1900
      7 C7         -0.4217    2.5726   48.9255 C.ar    1  ZINC000479580180    0.0800
      8 C8          0.8399    2.6814   49.4962 C.ar    1  ZINC000479580180   -0.1400
      9 C9          0.9620    2.9532   50.8445 C.ar    1  ZINC000479580180    0.1300
     10 F10         2.1902    3.0590   51.3972 F       1  ZINC000479580180   -0.1300
     11 C11        -0.1659    3.1191   51.6381 C.ar    1  ZINC000479580180   -0.1600
     12 C12        -1.4162    3.0152   51.0938 C.ar    1  ZINC000479580180   -0.0400
     13 C13        -1.5581    2.7481   49.7333 C.ar    1  ZINC000479580180   -0.1200
     14 N14        -5.8685    1.1247   50.1549 N.am    1  ZINC000479580180   -0.6200
     15 C15        -6.3792   -0.2118   50.4891 C.3     1  ZINC000479580180    0.1100
     16 C16        -6.7265   -0.2480   51.9806 C.3     1  ZINC000479580180   -0.1300
     17 C17        -7.6940    0.8933   52.3030 C.3     1  ZINC000479580180   -0.0100
     18 C18        -8.0646    0.8401   53.7627 C.2     1  ZINC000479580180    0.3000
     19 N19        -8.9716    0.0640   54.2943 N.2     1  ZINC000479580180   -0.5300
     20 C20        -9.0366    0.2810   55.6148 C.2     1  ZINC000479580180    0.2700
     21 C21        -9.9466   -0.4106   56.5614 C.ar    1  ZINC000479580180   -0.0200
     22 C22        -9.8109   -0.2111   57.9337 C.ar    1  ZINC000479580180   -0.0800
     23 C23       -10.6602   -0.8565   58.8095 C.ar    1  ZINC000479580180   -0.1300
     24 C24       -11.6444   -1.7003   58.3273 C.ar    1  ZINC000479580180   -0.1000
     25 C25       -11.7834   -1.9019   56.9659 C.ar    1  ZINC000479580180   -0.1200
     26 C26       -10.9434   -1.2572   56.0808 C.ar    1  ZINC000479580180   -0.0800
     27 N27        -8.1599    1.2079   55.9332 N.2     1  ZINC000479580180   -0.3000
     28 N28        -7.5144    1.5794   54.7426 N.pl3   1  ZINC000479580180   -0.4800
     29 C29        -7.0239    2.2344   51.9955 C.3     1  ZINC000479580180   -0.1400
     30 C30        -6.6772    2.2990   50.5095 C.3     1  ZINC000479580180    0.1200
     31 H31        -4.7313    3.0557   48.3703 H       1  ZINC000479580180    0.1100
     32 H32        -4.2838    3.2986   50.0759 H       1  ZINC000479580180    0.1100
     33 H33        -2.7837    2.1418   46.7326 H       1  ZINC000479580180    0.2100
     34 H34         1.7226    2.5536   48.8872 H       1  ZINC000479580180    0.1500
     35 H35        -0.0549    3.3313   52.6912 H       1  ZINC000479580180    0.1400
     36 H36        -2.2902    3.1444   51.7149 H       1  ZINC000479580180    0.1300
     37 H37        -7.2729   -0.4191   49.9006 H       1  ZINC000479580180    0.0800
     38 H38        -5.6157   -0.9591   50.2734 H       1  ZINC000479580180    0.0900
     39 H39        -7.1958   -1.2018   52.2218 H       1  ZINC000479580180    0.0900
     40 H40        -5.8165   -0.1307   52.5691 H       1  ZINC000479580180    0.0700
     41 H41        -8.5933    0.7892   51.6959 H       1  ZINC000479580180    0.1200
     42 H42        -9.0424    0.4470   58.3113 H       1  ZINC000479580180    0.1400
     43 H43       -10.5560   -0.7026   59.8734 H       1  ZINC000479580180    0.1300
     44 H44       -12.3064   -2.2039   59.0161 H       1  ZINC000479580180    0.1300
     45 H45       -12.5533   -2.5622   56.5947 H       1  ZINC000479580180    0.1300
     46 H46       -11.0530   -1.4151   55.0180 H       1  ZINC000479580180    0.1300
     47 H47        -6.8137    2.2430   54.6451 H       1  ZINC000479580180    0.4400
     48 H48        -7.7049    3.0474   52.2472 H       1  ZINC000479580180    0.0900
     49 H49        -6.1112    2.3284   52.5838 H       1  ZINC000479580180    0.0700
     50 H50        -6.1121    3.2086   50.3055 H       1  ZINC000479580180    0.1000
     51 H51        -7.5939    2.2959   49.9199 H       1  ZINC000479580180    0.0800
@<TRIPOS>BOND
     1     1     2    2
     2     2     3    1
     3     2    14   am
     4     3     4    1
     5     3    31    1
     6     3    32    1
     7     4    13    1
     8     4     5    2
     9     5     6    1
    10     5    33    1
    11     6     7    1
    12     7    13   ar
    13     7     8   ar
    14     8     9   ar
    15     8    34    1
    16     9    10    1
    17     9    11   ar
    18    11    12   ar
    19    11    35    1
    20    12    13   ar
    21    12    36    1
    22    14    30    1
    23    14    15    1
    24    15    16    1
    25    15    37    1
    26    15    38    1
    27    16    17    1
    28    16    39    1
    29    16    40    1
    30    17    18    1
    31    17    29    1
    32    17    41    1
    33    18    28    1
    34    18    19    2
    35    19    20    1
    36    20    21    1
    37    20    27    2
    38    21    26   ar
    39    21    22   ar
    40    22    23   ar
    41    22    42    1
    42    23    24   ar
    43    23    43    1
    44    24    25   ar
    45    24    44    1
    46    25    26   ar
    47    25    45    1
    48    26    46    1
    49    27    28    1
    50    28    47    1
    51    29    30    1
    52    29    48    1
    53    29    49    1
    54    30    50    1
    55    30    51    1
@<TRIPOS>SUBSTRUCTURE
     1 ZINC000479580180        1 TEMP              0 ****  ****    0 ROOT


##########                                Name:    ZINC000671418508
##########                DOCK_Rotatable_Bonds:                   9
##########                         Heavy_Atoms:                  28
##########                    Molecular_Weight:             405.884
##########                DOCK_Rotatable_Bonds:                   9
##########                       Formal_Charge:         -1.3411e-07
##########                     HBond_Acceptors:                   9
##########                        HBond_Donors:                   2
##########                         Heavy_Atoms:                  28
##########                          Grid_Score:          -36.331921
##########                     Grid_vdw_energy:          -36.060486
##########                      Grid_es_energy:           -0.271433
##########           Internal_energy_repulsive:           17.929268

@<TRIPOS>MOLECULE
ZINC000671418508
 52 54 1 0 0
SMALL
USER_CHARGES


@<TRIPOS>ATOM
      1 C1         -7.2791    0.3818   66.2209 C.3     1  ZINC000671418508    0.1000
      2 N2         -7.9539    0.2178   64.9309 N.pl3   1  ZINC000671418508   -0.3700
      3 C3         -7.9572    1.1091   63.9177 C.2     1  ZINC000671418508    0.0800
      4 C4         -8.6901    0.5839   62.9087 C.2     1  ZINC000671418508   -0.2700
      5 C5         -8.9616    1.2359   61.5774 C.3     1  ZINC000671418508    0.2000
      6 N6         -9.0998    0.2035   60.5472 N.am    1  ZINC000671418508   -0.6900
      7 C7         -9.9251    0.4025   59.5004 C.2     1  ZINC000671418508    0.5100
      8 O8        -10.5546    1.4361   59.4119 O.2     1  ZINC000671418508   -0.5100
      9 C9        -10.0648   -0.6499   58.4485 C.2     1  ZINC000671418508    0.5100
     10 O10        -9.2800   -0.6917   57.5239 O.2     1  ZINC000671418508   -0.5200
     11 N11       -11.0625   -1.5528   58.5269 N.am    1  ZINC000671418508   -0.5800
     12 C12       -12.0281   -1.5164   59.6357 C.3     1  ZINC000671418508    0.0800
     13 C13       -13.4436   -1.5430   59.0494 C.3     1  ZINC000671418508    0.0400
     14 N14       -13.5755   -2.6957   58.1485 N.3     1  ZINC000671418508   -0.5200
     15 C15       -14.9650   -2.8567   57.6996 C.3     1  ZINC000671418508    0.1300
     16 H16       -15.3615   -1.8895   57.3910 H       1  ZINC000671418508    0.0600
     17 C17       -15.8107   -3.4119   58.8475 C.3     1  ZINC000671418508    0.0900
     18 O18       -17.0717   -2.7405   58.8780 O.3     1  ZINC000671418508   -0.5500
     19 C19       -15.0091   -3.8124   56.5353 C.ar    1  ZINC000671418508   -0.0800
     20 C20       -14.5577   -5.1100   56.6890 C.ar    1  ZINC000671418508   -0.0600
     21 C21       -14.5980   -5.9870   55.6215 C.ar    1  ZINC000671418508   -0.1200
     22 C22       -15.0902   -5.5661   54.3989 C.ar    1  ZINC000671418508   -0.0300
     23 Cl23      -15.1415   -6.6671   53.0578 Cl      1  ZINC000671418508   -0.0700
     24 C24       -15.5418   -4.2674   54.2456 C.ar    1  ZINC000671418508   -0.1200
     25 C25       -15.5063   -3.3929   55.3155 C.ar    1  ZINC000671418508   -0.1100
     26 C26       -12.6620   -2.5843   57.0035 C.3     1  ZINC000671418508    0.0400
     27 C27       -11.2181   -2.5967   57.5026 C.3     1  ZINC000671418508    0.1100
     28 C28        -9.1504   -0.6714   63.3193 C.2     1  ZINC000671418508    0.0700
     29 N29        -8.7047   -0.8945   64.5291 N.2     1  ZINC000671418508   -0.2900
     30 H30        -6.2641   -0.0098   66.1523 H       1  ZINC000671418508    0.0800
     31 H31        -7.2437    1.4399   66.4804 H       1  ZINC000671418508    0.0900
     32 H32        -7.8274   -0.1628   66.9896 H       1  ZINC000671418508    0.0900
     33 H33        -7.4637    2.0698   63.9132 H       1  ZINC000671418508    0.1800
     34 H34        -9.8832    1.8149   61.6377 H       1  ZINC000671418508    0.0800
     35 H35        -8.1335    1.8967   61.3209 H       1  ZINC000671418508    0.0800
     36 H36        -8.5976   -0.6232   60.6186 H       1  ZINC000671418508    0.4100
     37 H37       -11.8813   -2.3850   60.2777 H       1  ZINC000671418508    0.0800
     38 H38       -11.8880   -0.6027   60.2134 H       1  ZINC000671418508    0.1400
     39 H39       -14.1703   -1.6277   59.8574 H       1  ZINC000671418508    0.0900
     40 H40       -13.6240   -0.6235   58.4925 H       1  ZINC000671418508    0.0400
     41 H41       -15.9710   -4.4795   58.6973 H       1  ZINC000671418508    0.0500
     42 H42       -15.2909   -3.2519   59.7922 H       1  ZINC000671418508    0.0500
     43 H43       -17.7578   -3.1680   58.3474 H       1  ZINC000671418508    0.3800
     44 H44       -14.1732   -5.4385   57.6433 H       1  ZINC000671418508    0.1400
     45 H45       -14.2450   -7.0006   55.7416 H       1  ZINC000671418508    0.1300
     46 H46       -15.9257   -3.9381   53.2915 H       1  ZINC000671418508    0.1300
     47 H47       -15.8592   -2.3792   55.1961 H       1  ZINC000671418508    0.1300
     48 H48       -12.8219   -3.4244   56.3276 H       1  ZINC000671418508    0.0900
     49 H49       -12.8532   -1.6504   56.4751 H       1  ZINC000671418508    0.0400
     50 H50       -10.5414   -2.3998   56.6710 H       1  ZINC000671418508    0.1000
     51 H51       -10.9905   -3.5684   57.9411 H       1  ZINC000671418508    0.0800
     52 H52        -9.7636   -1.3427   62.7366 H       1  ZINC000671418508    0.1900
@<TRIPOS>BOND
     1     1     2    1
     2     1    30    1
     3     1    31    1
     4     1    32    1
     5     2    29    1
     6     2     3    1
     7     3     4    2
     8     3    33    1
     9     4     5    1
    10     4    28    1
    11     5     6    1
    12     5    34    1
    13     5    35    1
    14     6     7   am
    15     6    36    1
    16     7     8    2
    17     7     9    1
    18     9    10    2
    19     9    11   am
    20    11    27    1
    21    11    12    1
    22    12    13    1
    23    12    37    1
    24    12    38    1
    25    13    14    1
    26    13    39    1
    27    13    40    1
    28    14    15    1
    29    14    26    1
    30    15    16    1
    31    15    17    1
    32    15    19    1
    33    17    18    1
    34    17    41    1
    35    17    42    1
    36    18    43    1
    37    19    25   ar
    38    19    20   ar
    39    20    21   ar
    40    20    44    1
    41    21    22   ar
    42    21    45    1
    43    22    23    1
    44    22    24   ar
    45    24    25   ar
    46    24    46    1
    47    25    47    1
    48    26    27    1
    49    26    48    1
    50    26    49    1
    51    27    50    1
    52    27    51    1
    53    28    29    2
    54    28    52    1
@<TRIPOS>SUBSTRUCTURE
     1 ZINC000671418508        1 TEMP              0 ****  ****    0 ROOT


##########                                Name:    ZINC001340305486
##########                DOCK_Rotatable_Bonds:                   8
##########                         Heavy_Atoms:                  27
##########                    Molecular_Weight:             378.431
##########                DOCK_Rotatable_Bonds:                   8
##########                       Formal_Charge:          0.00999955
##########                     HBond_Acceptors:                  10
##########                        HBond_Donors:                   2
##########                         Heavy_Atoms:                  27
##########                          Grid_Score:          -36.244232
##########                     Grid_vdw_energy:          -34.965706
##########                      Grid_es_energy:           -1.278527
##########           Internal_energy_repulsive:           10.614406

@<TRIPOS>MOLECULE
ZINC001340305486
 53 55 1 0 0
SMALL
USER_CHARGES


@<TRIPOS>ATOM
      1 C1        -15.5797   -4.3100   57.6578 C.3     1  ZINC001340305486    0.0900
      2 N2        -14.6555   -3.7543   56.6662 N.am    1  ZINC001340305486   -0.7300
      3 C3        -14.6437   -2.4283   56.4249 C.2     1  ZINC001340305486    0.5200
      4 O4        -15.3991   -1.6955   57.0276 O.2     1  ZINC001340305486   -0.5100
      5 C5        -13.6918   -1.8563   55.4062 C.3     1  ZINC001340305486    0.0600
      6 H6        -13.5154   -2.5905   54.6202 H       1  ZINC001340305486    0.0900
      7 C7        -12.3637   -1.5056   56.0867 C.3     1  ZINC001340305486    0.0900
      8 N8        -11.5239   -0.7809   55.1197 N.am    1  ZINC001340305486   -0.5800
      9 C9        -10.2498   -1.1553   54.8897 C.2     1  ZINC001340305486    0.5100
     10 O10        -9.7794   -2.1034   55.4836 O.2     1  ZINC001340305486   -0.5200
     11 C11        -9.4163   -0.4032   53.9033 C.2     1  ZINC001340305486    0.5200
     12 O12        -9.0686    0.7341   54.1450 O.2     1  ZINC001340305486   -0.5000
     13 N13        -9.0508   -0.9879   52.7453 N.am    1  ZINC001340305486   -0.6900
     14 C14        -8.2352   -0.2499   51.7776 C.3     1  ZINC001340305486    0.1200
     15 C15        -6.7992   -0.1458   52.2953 C.3     1  ZINC001340305486   -0.0400
     16 C16        -5.8829    0.2359   51.1614 C.2     1  ZINC001340305486    0.1700
     17 N17        -5.3957   -0.5677   50.2532 N.2     1  ZINC001340305486   -0.2800
     18 N18        -4.6568    0.0984   49.4359 N.2     1  ZINC001340305486   -0.2900
     19 C19        -4.6446    1.3536   49.7835 C.2     1  ZINC001340305486    0.1900
     20 C20        -3.9301    2.4838   49.0890 C.3     1  ZINC001340305486   -0.0400
     21 C21        -3.1925    3.3269   50.1335 C.3     1  ZINC001340305486   -0.1200
     22 C22        -4.1248    4.4106   50.6667 C.3     1  ZINC001340305486   -0.1300
     23 C23        -5.5662    3.9051   50.7053 C.3     1  ZINC001340305486   -0.1400
     24 C24        -5.6668    2.7013   51.6463 C.3     1  ZINC001340305486    0.1000
     25 N25        -5.4155    1.4744   50.8894 N.pl3   1  ZINC001340305486   -0.4600
     26 C26       -12.1162    0.3651   54.4117 C.3     1  ZINC001340305486    0.0200
     27 C27       -13.4564   -0.0767   53.8129 C.3     1  ZINC001340305486    0.0500
     28 O28       -14.2567   -0.6731   54.8364 O.3     1  ZINC001340305486   -0.3500
     29 H29       -15.3763   -3.8668   58.6326 H       1  ZINC001340305486    0.0600
     30 H30       -16.6053   -4.0867   57.3640 H       1  ZINC001340305486    0.0600
     31 H31       -15.4450   -5.3902   57.7147 H       1  ZINC001340305486    0.0800
     32 H32       -14.0522   -4.3404   56.1834 H       1  ZINC001340305486    0.4000
     33 H33       -12.5517   -0.8744   56.9553 H       1  ZINC001340305486    0.0900
     34 H34       -11.8586   -2.4197   56.3989 H       1  ZINC001340305486    0.1100
     35 H35        -9.3277   -1.8973   52.5527 H       1  ZINC001340305486    0.4200
     36 H36        -8.2399   -0.7756   50.8227 H       1  ZINC001340305486    0.0900
     37 H37        -8.6466    0.7505   51.6437 H       1  ZINC001340305486    0.0800
     38 H38        -6.7484    0.6140   53.0752 H       1  ZINC001340305486    0.0900
     39 H39        -6.4898   -1.1076   52.7045 H       1  ZINC001340305486    0.1100
     40 H40        -3.2129    2.0780   48.3756 H       1  ZINC001340305486    0.1000
     41 H41        -4.6554    3.1059   48.5645 H       1  ZINC001340305486    0.0900
     42 H42        -2.8718    2.6872   50.9556 H       1  ZINC001340305486    0.0600
     43 H43        -2.3203    3.7923   49.6743 H       1  ZINC001340305486    0.0800
     44 H44        -3.8141    4.6889   51.6737 H       1  ZINC001340305486    0.0700
     45 H45        -4.0676    5.2852   50.0186 H       1  ZINC001340305486    0.0800
     46 H46        -6.2200    4.7006   51.0632 H       1  ZINC001340305486    0.0900
     47 H47        -5.8734    3.6081   49.7025 H       1  ZINC001340305486    0.0800
     48 H48        -4.9288    2.7993   52.4424 H       1  ZINC001340305486    0.0900
     49 H49        -6.6663    2.6608   52.0795 H       1  ZINC001340305486    0.1000
     50 H50       -12.2792    1.1846   55.1117 H       1  ZINC001340305486    0.0800
     51 H51       -11.4472    0.6898   53.6149 H       1  ZINC001340305486    0.1700
     52 H52       -13.9755    0.7899   53.4034 H       1  ZINC001340305486    0.1200
     53 H53       -13.2790   -0.8038   53.0204 H       1  ZINC001340305486    0.0600
@<TRIPOS>BOND
     1     1     2    1
     2     1    29    1
     3     1    30    1
     4     1    31    1
     5     2     3   am
     6     2    32    1
     7     3     4    2
     8     3     5    1
     9     5     6    1
    10     5    28    1
    11     5     7    1
    12     7     8    1
    13     7    33    1
    14     7    34    1
    15     8     9   am
    16     8    26    1
    17     9    10    2
    18     9    11    1
    19    11    12    2
    20    11    13   am
    21    13    14    1
    22    13    35    1
    23    14    15    1
    24    14    36    1
    25    14    37    1
    26    15    16    1
    27    15    38    1
    28    15    39    1
    29    16    25    1
    30    16    17    2
    31    17    18    1
    32    18    19    2
    33    19    25    1
    34    19    20    1
    35    20    21    1
    36    20    40    1
    37    20    41    1
    38    21    22    1
    39    21    42    1
    40    21    43    1
    41    22    23    1
    42    22    44    1
    43    22    45    1
    44    23    24    1
    45    23    46    1
    46    23    47    1
    47    24    25    1
    48    24    48    1
    49    24    49    1
    50    26    27    1
    51    26    50    1
    52    26    51    1
    53    27    28    1
    54    27    52    1
    55    27    53    1
@<TRIPOS>SUBSTRUCTURE
     1 ZINC001340305486        1 TEMP              0 ****  ****    0 ROOT


##########                                Name:     oleObject70.pdb
##########                DOCK_Rotatable_Bonds:                   9
##########                         Heavy_Atoms:                  35
##########                    Molecular_Weight:             504.458
##########                DOCK_Rotatable_Bonds:                   9
##########                       Formal_Charge:          0.00010002
##########                     HBond_Acceptors:                   6
##########                        HBond_Donors:                   2
##########                         Heavy_Atoms:                  35
##########                          Grid_Score:          -36.191025
##########                     Grid_vdw_energy:          -36.367935
##########                      Grid_es_energy:            0.176910
##########           Internal_energy_repulsive:           15.027899

@<TRIPOS>MOLECULE
oleObject70.pdb
 62 65 1 0 0
SMALL
NO_CHARGES


@<TRIPOS>ATOM
      1 C          -8.1525   -0.2611   60.3068 C.ar    1  UNL        -0.0620
      2 C          -9.3087   -1.0532   60.3486 C.ar    1  UNL        -0.0590
      3 C         -10.1407   -1.1732   59.2184 C.ar    1  UNL        -0.0456
      4 C          -9.8014   -0.4939   58.0205 C.ar    1  UNL        -0.0187
      5 C          -8.6419    0.3117   57.9997 C.ar    1  UNL        -0.0565
      6 C          -7.8218    0.4259   59.1319 C.ar    1  UNL        -0.0619
      7 C         -10.6860   -0.6013   56.7655 C.3     1  UNL         0.0909
      8 C         -12.0120    0.1722   56.8676 C.ar    1  UNL         0.0681
      9 C         -13.2276   -0.3598   56.3674 C.ar    1  UNL        -0.0272
     10 C         -14.3985    0.4113   56.4944 C.ar    1  UNL        -0.0559
     11 C         -14.3261    1.6688   57.1106 C.ar    1  UNL        -0.0435
     12 C         -13.0831    2.1143   57.5835 C.ar    1  UNL         0.0272
     13 N         -11.9583    1.3846   57.4672 N.ar    1  UNL        -0.2587
     14 C         -13.3050   -1.7269   55.6967 C.3     1  UNL        -0.0379
     15 N          -9.9330   -0.3768   55.5118 N.am    1  UNL        -0.2987
     16 C          -9.6755    0.8471   54.9064 C.2     1  UNL         0.2437
     17 O         -10.0546    1.9061   55.3763 O.2     1  UNL        -0.2719
     18 C          -8.8794    0.8027   53.6240 C.ar    1  UNL         0.0371
     19 C          -8.6509   -0.4025   52.9224 C.ar    1  UNL        -0.0494
     20 C          -7.9067   -0.4072   51.7311 C.ar    1  UNL        -0.0570
     21 C          -7.3767    0.7881   51.2178 C.ar    1  UNL        -0.0341
     22 C          -7.6009    1.9910   51.9075 C.ar    1  UNL        -0.0570
     23 C          -8.3439    1.9973   53.0992 C.ar    1  UNL        -0.0494
     24 C          -6.5783    0.7803   49.9250 C.3     1  UNL         0.0208
     25 N          -5.1723    1.1305   50.1629 N.4     1  UNL        -0.3086
     26 C          -4.7380    2.3471   49.4637 C.3     1  UNL         0.0223
     27 C          -3.2331    2.5494   49.5778 C.ar    1  UNL        -0.0154
     28 C          -2.4232    2.3565   48.4422 C.ar    1  UNL        -0.0548
     29 C          -1.0330    2.5409   48.5183 C.ar    1  UNL        -0.0431
     30 C          -0.4425    2.9219   49.7331 C.ar    1  UNL         0.0421
     31 C          -1.2408    3.1200   50.8705 C.ar    1  UNL        -0.0245
     32 C          -2.6320    2.9358   50.7959 C.ar    1  UNL         0.0465
     33 CL         -3.5879    3.2043   52.2422 Cl      1  UNL        -0.0839
     34 CL          1.2902    3.1531   49.8292 Cl      1  UNL        -0.0843
     35 C         -11.4003   -2.0264   59.3314 C.3     1  UNL        -0.0394
     36 H          -7.5207   -0.1722   61.1859 H       1  UNL         0.0623
     37 H          -9.5616   -1.5718   61.2691 H       1  UNL         0.0626
     38 H          -8.3732    0.8654   57.1063 H       1  UNL         0.0627
     39 H          -6.9340    1.0507   59.0983 H       1  UNL         0.0623
     40 H         -10.9740   -1.6546   56.6976 H       1  UNL         0.0624
     41 H         -15.3498    0.0440   56.1201 H       1  UNL         0.0627
     42 H         -15.2131    2.2855   57.2198 H       1  UNL         0.0639
     43 H         -12.9828    3.0846   58.0680 H       1  UNL         0.0840
     44 H         -12.7319   -1.7413   54.7617 H       1  UNL         0.0280
     45 H         -14.3394   -1.9959   55.4487 H       1  UNL         0.0280
     46 H         -12.9131   -2.5149   56.3511 H       1  UNL         0.0280
     47 H          -9.5753   -1.1980   55.0442 H       1  UNL         0.1508
     48 H          -9.0437   -1.3459   53.2874 H       1  UNL         0.0631
     49 H          -7.7445   -1.3427   51.2028 H       1  UNL         0.0626
     50 H          -7.2017    2.9240   51.5193 H       1  UNL         0.0626
     51 H          -8.5042    2.9406   53.6139 H       1  UNL         0.0631
     52 H          -7.0254    1.4949   49.2217 H       1  UNL         0.0479
     53 H          -6.6403   -0.2166   49.4693 H       1  UNL         0.0479
     54 H          -4.5815    0.3512   49.8736 H       1  UNL         0.1229
     55 H          -5.2536    3.2177   49.8892 H       1  UNL         0.0480
     56 H          -5.0182    2.2906   48.4039 H       1  UNL         0.0480
     57 H          -2.8728    2.0661   47.4966 H       1  UNL         0.0627
     58 H          -0.4164    2.3902   47.6367 H       1  UNL         0.0639
     59 H          -0.7822    3.4181   51.8091 H       1  UNL         0.0654
     60 H         -11.5799   -2.3499   60.3644 H       1  UNL         0.0280
     61 H         -11.3209   -2.9298   58.7142 H       1  UNL         0.0280
     62 H         -12.2883   -1.4683   59.0090 H       1  UNL         0.0280
@<TRIPOS>BOND
     1     1     2   ar
     2     1     6   ar
     3     1    36    1
     4     2     3   ar
     5     2    37    1
     6     3     4   ar
     7     3    35    1
     8     4     5   ar
     9     4     7    1
    10     5     6   ar
    11     5    38    1
    12     6    39    1
    13     7     8    1
    14     7    15    1
    15     7    40    1
    16     8     9   ar
    17     8    13   ar
    18     9    10   ar
    19     9    14    1
    20    10    11   ar
    21    10    41    1
    22    11    12   ar
    23    11    42    1
    24    12    13   ar
    25    12    43    1
    26    14    44    1
    27    14    45    1
    28    14    46    1
    29    15    16   am
    30    15    47    1
    31    16    17    2
    32    16    18    1
    33    18    19   ar
    34    18    23   ar
    35    19    20   ar
    36    19    48    1
    37    20    21   ar
    38    20    49    1
    39    21    22   ar
    40    21    24    1
    41    22    23   ar
    42    22    50    1
    43    23    51    1
    44    24    25    1
    45    24    52    1
    46    24    53    1
    47    25    26    1
    48    25    54    1
    49    26    27    1
    50    26    55    1
    51    26    56    1
    52    27    28   ar
    53    27    32   ar
    54    28    29   ar
    55    28    57    1
    56    29    30   ar
    57    29    58    1
    58    30    31   ar
    59    30    34    1
    60    31    32   ar
    61    31    59    1
    62    32    33    1
    63    35    60    1
    64    35    61    1
    65    35    62    1
@<TRIPOS>SUBSTRUCTURE
     1 UNL         1 TEMP              0 ****  ****    0 ROOT


##########                                Name:    ZINC000767361237
##########                DOCK_Rotatable_Bonds:                  10
##########                         Heavy_Atoms:                  30
##########                    Molecular_Weight:             409.439
##########                DOCK_Rotatable_Bonds:                  10
##########                       Formal_Charge:          -0.0300005
##########                     HBond_Acceptors:                   7
##########                        HBond_Donors:                   1
##########                         Heavy_Atoms:                  30
##########                          Grid_Score:          -36.189335
##########                     Grid_vdw_energy:          -35.603687
##########                      Grid_es_energy:           -0.585648
##########           Internal_energy_repulsive:            9.836413

@<TRIPOS>MOLECULE
ZINC000767361237
 53 55 1 0 0
SMALL
USER_CHARGES


@<TRIPOS>ATOM
      1 C1         -7.5345    1.1234   65.2314 C.3     1  ZINC000767361237   -0.1200
      2 C2         -8.1095    0.8551   63.8645 C.ar    1  ZINC000767361237   -0.0900
      3 C3         -8.6629   -0.3787   63.5774 C.ar    1  ZINC000767361237   -0.1200
      4 C4         -9.1903   -0.6247   62.3235 C.ar    1  ZINC000767361237   -0.1100
      5 C5         -9.1646    0.3631   61.3568 C.ar    1  ZINC000767361237   -0.0800
      6 C6         -9.7391    0.0946   59.9898 C.3     1  ZINC000767361237   -0.0800
      7 H7         -9.8156    1.0312   59.4375 H       1  ZINC000767361237    0.0900
      8 C8        -11.1296   -0.5272   60.1342 C.3     1  ZINC000767361237   -0.1500
      9 C9         -8.8248   -0.8707   59.2328 C.3     1  ZINC000767361237    0.1300
     10 H10        -8.7661   -1.8152   59.7738 H       1  ZINC000767361237    0.1400
     11 O11        -7.5183   -0.3024   59.1235 O.3     1  ZINC000767361237   -0.5200
     12 C12        -9.3833   -1.1150   57.8546 C.2     1  ZINC000767361237    0.4300
     13 O13        -9.8255   -2.2018   57.5659 O.2     1  ZINC000767361237   -0.5000
     14 O14        -9.3897   -0.1253   56.9478 O.3     1  ZINC000767361237   -0.3300
     15 C15        -9.9687   -0.4240   55.6501 C.3     1  ZINC000767361237    0.0100
     16 C16       -10.3548    0.8613   54.9646 C.2     1  ZINC000767361237    0.3700
     17 O17       -11.4377    1.3542   55.1713 O.2     1  ZINC000767361237   -0.4200
     18 C18        -9.3896    1.5314   54.0210 C.3     1  ZINC000767361237   -0.1800
     19 C19        -9.6511    1.0454   52.5939 C.3     1  ZINC000767361237    0.1200
     20 N20        -8.4384    1.2163   51.7900 N.am    1  ZINC000767361237   -0.5800
     21 C21        -7.4926    0.2733   51.6293 C.2     1  ZINC000767361237    0.5700
     22 O22        -7.5085   -0.8375   52.1201 O.2     1  ZINC000767361237   -0.4600
     23 C23        -6.4312    0.8150   50.7547 C.ar    1  ZINC000767361237   -0.1400
     24 C24        -5.2401    0.3143   50.2549 C.ar    1  ZINC000767361237   -0.0400
     25 C25        -4.4511    1.1073   49.4357 C.ar    1  ZINC000767361237   -0.0900
     26 C26        -4.8447    2.3926   49.1152 C.ar    1  ZINC000767361237   -0.0900
     27 C27        -6.0341    2.9070   49.6082 C.ar    1  ZINC000767361237   -0.0400
     28 C28        -6.8327    2.1262   50.4277 C.ar    1  ZINC000767361237   -0.1400
     29 C29        -8.1269    2.3349   51.1107 C.2     1  ZINC000767361237    0.5700
     30 O30        -8.7962    3.3474   51.0673 O.2     1  ZINC000767361237   -0.4600
     31 C31        -8.6124    1.5973   61.6444 C.ar    1  ZINC000767361237   -0.1100
     32 C32        -8.0885    1.8446   62.8994 C.ar    1  ZINC000767361237   -0.1200
     33 H33        -8.3138    1.5205   65.8819 H       1  ZINC000767361237    0.0700
     34 H34        -7.1486    0.1947   65.6520 H       1  ZINC000767361237    0.0700
     35 H35        -6.7252    1.8489   65.1492 H       1  ZINC000767361237    0.0700
     36 H36        -8.6830   -1.1504   64.3327 H       1  ZINC000767361237    0.1200
     37 H37        -9.6221   -1.5889   62.0991 H       1  ZINC000767361237    0.1200
     38 H38       -11.5452   -0.7214   59.1454 H       1  ZINC000767361237    0.0800
     39 H39       -11.0531   -1.4639   60.6865 H       1  ZINC000767361237    0.0700
     40 H40       -11.7810    0.1605   60.6735 H       1  ZINC000767361237    0.0600
     41 H41        -7.0078   -0.3290   59.9443 H       1  ZINC000767361237    0.3900
     42 H42        -9.2385   -0.9560   55.0403 H       1  ZINC000767361237    0.1100
     43 H43       -10.8542   -1.0458   55.7819 H       1  ZINC000767361237    0.1100
     44 H44        -9.5267    2.6117   54.0677 H       1  ZINC000767361237    0.1100
     45 H45        -8.3682    1.2819   54.3083 H       1  ZINC000767361237    0.1100
     46 H46        -9.9282   -0.0085   52.6140 H       1  ZINC000767361237    0.1100
     47 H47       -10.4626    1.6262   52.1553 H       1  ZINC000767361237    0.1100
     48 H48        -4.9275   -0.6894   50.5024 H       1  ZINC000767361237    0.1400
     49 H49        -3.5223    0.7180   49.0459 H       1  ZINC000767361237    0.1400
     50 H50        -4.2214    3.0008   48.4765 H       1  ZINC000767361237    0.1400
     51 H51        -6.3370    3.9121   49.3541 H       1  ZINC000767361237    0.1400
     52 H52        -8.5927    2.3691   60.8892 H       1  ZINC000767361237    0.1200
     53 H53        -7.6570    2.8088   63.1241 H       1  ZINC000767361237    0.1200
@<TRIPOS>BOND
     1     1     2    1
     2     1    33    1
     3     1    34    1
     4     1    35    1
     5     2    32   ar
     6     2     3   ar
     7     3     4   ar
     8     3    36    1
     9     4     5   ar
    10     4    37    1
    11     5     6    1
    12     5    31   ar
    13     6     7    1
    14     6     8    1
    15     6     9    1
    16     8    38    1
    17     8    39    1
    18     8    40    1
    19     9    10    1
    20     9    11    1
    21     9    12    1
    22    11    41    1
    23    12    13    2
    24    12    14    1
    25    14    15    1
    26    15    16    1
    27    15    42    1
    28    15    43    1
    29    16    17    2
    30    16    18    1
    31    18    19    1
    32    18    44    1
    33    18    45    1
    34    19    20    1
    35    19    46    1
    36    19    47    1
    37    20    29   am
    38    20    21   am
    39    21    22    2
    40    21    23    1
    41    23    28   ar
    42    23    24   ar
    43    24    25   ar
    44    24    48    1
    45    25    26   ar
    46    25    49    1
    47    26    27   ar
    48    26    50    1
    49    27    28   ar
    50    27    51    1
    51    28    29    1
    52    29    30    2
    53    31    32   ar
    54    31    52    1
    55    32    53    1
@<TRIPOS>SUBSTRUCTURE
     1 ZINC000767361237        1 TEMP              0 ****  ****    0 ROOT


##########                                Name:     oleObject52.pdb
##########                DOCK_Rotatable_Bonds:                  10
##########                         Heavy_Atoms:                  38
##########                    Molecular_Weight:              533.07
##########                DOCK_Rotatable_Bonds:                  10
##########                       Formal_Charge:         0.000300027
##########                     HBond_Acceptors:                   8
##########                        HBond_Donors:                   0
##########                         Heavy_Atoms:                  38
##########                          Grid_Score:          -36.187244
##########                     Grid_vdw_energy:          -37.115543
##########                      Grid_es_energy:            0.928300
##########           Internal_energy_repulsive:           23.217569

@<TRIPOS>MOLECULE
oleObject52.pdb
 71 74 1 0 0
SMALL
NO_CHARGES


@<TRIPOS>ATOM
      1 C          -9.3889    5.6878   56.9713 C.ar    1  UNL        -0.0596
      2 C          -8.0709    5.4163   56.5747 C.ar    1  UNL        -0.0314
      3 C          -7.7263    4.1464   56.0646 C.ar    1  UNL         0.0800
      4 C          -8.7153    3.1419   55.9491 C.ar    1  UNL         0.0089
      5 C         -10.0356    3.4284   56.3579 C.ar    1  UNL        -0.0541
      6 C         -10.3706    4.6933   56.8641 C.ar    1  UNL        -0.0617
      7 C          -8.3315    1.7603   55.3976 C.3     1  UNL         0.0953
      8 C          -8.9446    0.6101   56.2156 C.ar    1  UNL         0.0684
      9 C          -8.5068    0.3097   57.5300 C.ar    1  UNL        -0.0272
     10 C          -9.1267   -0.7510   58.2169 C.ar    1  UNL        -0.0559
     11 C         -10.1510   -1.4696   57.5840 C.ar    1  UNL        -0.0435
     12 C         -10.5247   -1.1022   56.2829 C.ar    1  UNL         0.0272
     13 N          -9.9381   -0.0898   55.6176 N.ar    1  UNL        -0.2587
     14 C          -7.4056    1.1034   58.2226 C.3     1  UNL        -0.0379
     15 N          -8.4965    1.6225   53.9223 N.am    1  UNL        -0.2917
     16 C          -7.3785    1.4344   53.1025 C.2     1  UNL         0.2180
     17 O          -6.3038    1.1226   53.5880 O.2     1  UNL        -0.2772
     18 C          -7.6278    1.2993   51.5785 C.3     1  UNL         0.0385
     19 C          -6.6684    0.2779   50.9210 C.3     1  UNL        -0.0289
     20 C          -5.2332    0.8314   50.7884 C.3     1  UNL        -0.0010
     21 N          -5.2083    2.1018   50.0269 N.4     1  UNL        -0.3010
     22 C          -6.0817    3.1414   50.6145 C.3     1  UNL        -0.0010
     23 C          -7.5360    2.6520   50.8236 C.3     1  UNL        -0.0289
     24 C          -3.8502    2.6264   49.7622 C.3     1  UNL         0.0222
     25 C          -3.1950    2.0277   48.5004 C.3     1  UNL         0.0661
     26 O          -2.0201    2.8040   48.2054 O.3     1  UNL        -0.3432
     27 C          -0.7671    2.2535   48.0174 C.ar    1  UNL         0.0937
     28 C          -0.3760    1.6859   46.7864 C.ar    1  UNL        -0.0289
     29 C           0.9083    1.1366   46.6372 C.ar    1  UNL        -0.0417
     30 C           1.8129    1.1485   47.7130 C.ar    1  UNL         0.0537
     31 C           1.4275    1.7132   48.9406 C.ar    1  UNL        -0.0230
     32 C           0.1438    2.2633   49.0927 C.ar    1  UNL         0.0721
     33 CL         -0.3000    2.9585   50.6403 Cl      1  UNL        -0.0814
     34 C           3.1239    0.5867   47.5583 C.1     1  UNL         0.0992
     35 N           4.1778    0.1301   47.4239 N.1     1  UNL        -0.1924
     36 C          -9.8708    1.7329   53.3865 C.3     1  UNL         0.0037
     37 O          -6.4310    3.8515   55.6748 O.3     1  UNL        -0.3490
     38 C          -5.3414    4.7861   55.7516 C.3     1  UNL         0.0422
     39 H          -9.6478    6.6671   57.3633 H       1  UNL         0.0624
     40 H          -7.3272    6.2003   56.6696 H       1  UNL         0.0651
     41 H         -10.8117    2.6741   56.2877 H       1  UNL         0.0627
     42 H         -11.3908    4.9012   57.1735 H       1  UNL         0.0623
     43 H          -7.2510    1.6937   55.5665 H       1  UNL         0.0627
     44 H          -8.8240   -1.0114   59.2270 H       1  UNL         0.0627
     45 H         -10.6484   -2.2907   58.0917 H       1  UNL         0.0639
     46 H         -11.3187   -1.6316   55.7578 H       1  UNL         0.0840
     47 H          -6.5123    1.1735   57.5930 H       1  UNL         0.0280
     48 H          -7.1032    0.6374   59.1685 H       1  UNL         0.0280
     49 H          -7.7419    2.1231   58.4489 H       1  UNL         0.0280
     50 H          -8.6533    0.9419   51.4378 H       1  UNL         0.0402
     51 H          -7.0424    0.0317   49.9188 H       1  UNL         0.0288
     52 H          -6.6558   -0.6616   51.4854 H       1  UNL         0.0288
     53 H          -4.6248    0.0689   50.2883 H       1  UNL         0.0431
     54 H          -4.8124    0.9922   51.7899 H       1  UNL         0.0431
     55 H          -6.1035    4.0211   49.9586 H       1  UNL         0.0431
     56 H          -5.6654    3.4664   51.5763 H       1  UNL         0.0431
     57 H          -8.0021    2.5339   49.8368 H       1  UNL         0.0288
     58 H          -8.1161    3.4198   51.3514 H       1  UNL         0.0288
     59 H          -3.2012    2.4369   50.6273 H       1  UNL         0.0455
     60 H          -3.9052    3.7141   49.6239 H       1  UNL         0.0455
     61 H          -3.9034    2.0771   47.6635 H       1  UNL         0.0586
     62 H          -2.9174    0.9816   48.6772 H       1  UNL         0.0586
     63 H          -1.0554    1.6648   45.9404 H       1  UNL         0.0651
     64 H           1.1991    0.7020   45.6842 H       1  UNL         0.0638
     65 H           2.1212    1.7262   49.7772 H       1  UNL         0.0653
     66 H         -10.4938    2.3542   54.0399 H       1  UNL         0.0433
     67 H         -10.3226    0.7366   53.3059 H       1  UNL         0.0433
     68 H          -9.8601    2.2117   52.4006 H       1  UNL         0.0433
     69 H          -4.4198    4.3112   55.3933 H       1  UNL         0.0535
     70 H          -5.1854    5.1088   56.7888 H       1  UNL         0.0535
     71 H          -5.5446    5.6649   55.1268 H       1  UNL         0.0535
@<TRIPOS>BOND
     1     1     2   ar
     2     1     6   ar
     3     1    39    1
     4     2     3   ar
     5     2    40    1
     6     3     4   ar
     7     3    37    1
     8     4     5   ar
     9     4     7    1
    10     5     6   ar
    11     5    41    1
    12     6    42    1
    13     7     8    1
    14     7    15    1
    15     7    43    1
    16     8     9   ar
    17     8    13   ar
    18     9    10   ar
    19     9    14    1
    20    10    11   ar
    21    10    44    1
    22    11    12   ar
    23    11    45    1
    24    12    13   ar
    25    12    46    1
    26    14    47    1
    27    14    48    1
    28    14    49    1
    29    15    16   am
    30    15    36    1
    31    16    17    2
    32    16    18    1
    33    18    19    1
    34    18    23    1
    35    18    50    1
    36    19    20    1
    37    19    51    1
    38    19    52    1
    39    20    21    1
    40    20    53    1
    41    20    54    1
    42    21    22    1
    43    21    24    1
    44    22    23    1
    45    22    55    1
    46    22    56    1
    47    23    57    1
    48    23    58    1
    49    24    25    1
    50    24    59    1
    51    24    60    1
    52    25    26    1
    53    25    61    1
    54    25    62    1
    55    26    27    1
    56    27    28   ar
    57    27    32   ar
    58    28    29   ar
    59    28    63    1
    60    29    30   ar
    61    29    64    1
    62    30    31   ar
    63    30    34    1
    64    31    32   ar
    65    31    65    1
    66    32    33    1
    67    34    35    3
    68    36    66    1
    69    36    67    1
    70    36    68    1
    71    37    38    1
    72    38    69    1
    73    38    70    1
    74    38    71    1
@<TRIPOS>SUBSTRUCTURE
     1 UNL         1 TEMP              0 ****  ****    0 ROOT


##########                                Name:    ZINC000062291520
##########                DOCK_Rotatable_Bonds:                  10
##########                         Heavy_Atoms:                  29
##########                    Molecular_Weight:             398.502
##########                DOCK_Rotatable_Bonds:                  10
##########                       Formal_Charge:          -0.0100006
##########                     HBond_Acceptors:                   6
##########                        HBond_Donors:                   1
##########                         Heavy_Atoms:                  29
##########                          Grid_Score:          -36.187080
##########                     Grid_vdw_energy:          -35.003323
##########                      Grid_es_energy:           -1.183759
##########           Internal_energy_repulsive:           12.904848

@<TRIPOS>MOLECULE
ZINC000062291520
 59 61 1 0 0
SMALL
USER_CHARGES


@<TRIPOS>ATOM
      1 C1         -7.1540    1.0415   64.1974 C.3     1  ZINC000062291520    0.0300
      2 O2         -7.8043    0.3952   63.1011 O.3     1  ZINC000062291520   -0.3100
      3 C3         -9.1587    0.5001   63.0381 C.ar    1  ZINC000062291520    0.1000
      4 C4         -9.8485    1.1864   64.0239 C.ar    1  ZINC000062291520   -0.1700
      5 C5        -11.2263    1.2872   63.9612 C.ar    1  ZINC000062291520   -0.1200
      6 C6        -11.9176    0.7092   62.9132 C.ar    1  ZINC000062291520   -0.1200
      7 C7        -11.2344    0.0280   61.9224 C.ar    1  ZINC000062291520   -0.1700
      8 C8         -9.8543   -0.0767   61.9793 C.ar    1  ZINC000062291520    0.1000
      9 O9         -9.1810   -0.7462   61.0057 O.3     1  ZINC000062291520   -0.3100
     10 C10        -8.2569    0.0086   60.2193 C.3     1  ZINC000062291520    0.0700
     11 C11        -8.6565   -0.0729   58.7447 C.3     1  ZINC000062291520   -0.1400
     12 C12        -7.8932    0.9624   57.9594 C.2     1  ZINC000062291520    0.5200
     13 O13        -6.9506    1.5338   58.4653 O.2     1  ZINC000062291520   -0.5400
     14 N14        -8.2582    1.2533   56.6951 N.am    1  ZINC000062291520   -0.7200
     15 C15        -7.5172    2.2610   55.9323 C.3     1  ZINC000062291520    0.1600
     16 C16        -8.2136    2.5092   54.6190 C.ar    1  ZINC000062291520   -0.1100
     17 C17        -9.5886    2.3982   54.5341 C.ar    1  ZINC000062291520   -0.1000
     18 C18       -10.2274    2.6264   53.3293 C.ar    1  ZINC000062291520   -0.1200
     19 C19        -9.4910    2.9653   52.2099 C.ar    1  ZINC000062291520   -0.0900
     20 C20        -8.1154    3.0758   52.2948 C.ar    1  ZINC000062291520   -0.0800
     21 C21        -7.3125    3.4451   51.0742 C.3     1  ZINC000062291520    0.0900
     22 N22        -6.1982    2.5009   50.9169 N.3     1  ZINC000062291520   -0.5300
     23 C23        -6.6643    1.2250   50.3544 C.3     1  ZINC000062291520    0.0100
     24 C24        -5.4852    0.2527   50.2633 C.3     1  ZINC000062291520    0.0600
     25 O25        -4.4462    0.8434   49.4779 O.3     1  ZINC000062291520   -0.3800
     26 C26        -3.9682    2.0872   49.9973 C.3     1  ZINC000062291520    0.0900
     27 H27        -3.5476    1.9293   50.9904 H       1  ZINC000062291520    0.0700
     28 C28        -2.8892    2.6477   49.0687 C.3     1  ZINC000062291520   -0.1500
     29 C29        -5.1319    3.0781   50.0857 C.3     1  ZINC000062291520    0.0200
     30 C30        -7.4774    2.8534   53.5005 C.ar    1  ZINC000062291520   -0.0900
     31 H31        -7.3638    2.1106   64.1652 H       1  ZINC000062291520    0.0500
     32 H32        -7.5239    0.6266   65.1350 H       1  ZINC000062291520    0.0600
     33 H33        -6.0782    0.8801   64.1280 H       1  ZINC000062291520    0.1000
     34 H34        -9.3108    1.6389   64.8439 H       1  ZINC000062291520    0.1400
     35 H35       -11.7634    1.8190   64.7327 H       1  ZINC000062291520    0.1300
     36 H36       -12.9935    0.7901   62.8676 H       1  ZINC000062291520    0.1300
     37 H37       -11.7768   -0.4221   61.1042 H       1  ZINC000062291520    0.1400
     38 H38        -7.2539   -0.3985   60.3471 H       1  ZINC000062291520    0.0700
     39 H39        -8.2704    1.0496   60.5424 H       1  ZINC000062291520    0.0700
     40 H40        -9.7261    0.1129   58.6473 H       1  ZINC000062291520    0.1100
     41 H41        -8.4236   -1.0657   58.3595 H       1  ZINC000062291520    0.1100
     42 H42        -9.0113    0.7954   56.2901 H       1  ZINC000062291520    0.4000
     43 H43        -7.4747    3.1892   56.5021 H       1  ZINC000062291520    0.0800
     44 H44        -6.5049    1.9031   55.7448 H       1  ZINC000062291520    0.0800
     45 H45       -10.1640    2.1338   55.4089 H       1  ZINC000062291520    0.1200
     46 H46       -11.3019    2.5401   53.2631 H       1  ZINC000062291520    0.1300
     47 H47        -9.9901    3.1435   51.2689 H       1  ZINC000062291520    0.1200
     48 H48        -7.9518    3.4028   50.1924 H       1  ZINC000062291520    0.0500
     49 H49        -6.9193    4.4551   51.1898 H       1  ZINC000062291520    0.0900
     50 H50        -7.4352    0.8030   50.9991 H       1  ZINC000062291520    0.0900
     51 H51        -7.0748    1.3944   49.3590 H       1  ZINC000062291520    0.0400
     52 H52        -5.1093    0.0416   51.2645 H       1  ZINC000062291520    0.0600
     53 H53        -5.8136   -0.6747   49.7941 H       1  ZINC000062291520    0.1000
     54 H54        -3.3108    2.8068   48.0762 H       1  ZINC000062291520    0.0600
     55 H55        -2.5252    3.5956   49.4651 H       1  ZINC000062291520    0.0700
     56 H56        -2.0627    1.9400   49.0032 H       1  ZINC000062291520    0.0700
     57 H57        -5.5172    3.2771   49.0857 H       1  ZINC000062291520    0.0400
     58 H58        -4.7842    4.0087   50.5343 H       1  ZINC000062291520    0.0900
     59 H59        -6.4034    2.9444   53.5679 H       1  ZINC000062291520    0.1200
@<TRIPOS>BOND
     1     1     2    1
     2     1    31    1
     3     1    32    1
     4     1    33    1
     5     2     3    1
     6     3     8   ar
     7     3     4   ar
     8     4     5   ar
     9     4    34    1
    10     5     6   ar
    11     5    35    1
    12     6     7   ar
    13     6    36    1
    14     7     8   ar
    15     7    37    1
    16     8     9    1
    17     9    10    1
    18    10    11    1
    19    10    38    1
    20    10    39    1
    21    11    12    1
    22    11    40    1
    23    11    41    1
    24    12    13    2
    25    12    14   am
    26    14    15    1
    27    14    42    1
    28    15    16    1
    29    15    43    1
    30    15    44    1
    31    16    30   ar
    32    16    17   ar
    33    17    18   ar
    34    17    45    1
    35    18    19   ar
    36    18    46    1
    37    19    20   ar
    38    19    47    1
    39    20    21    1
    40    20    30   ar
    41    21    22    1
    42    21    48    1
    43    21    49    1
    44    22    29    1
    45    22    23    1
    46    23    24    1
    47    23    50    1
    48    23    51    1
    49    24    25    1
    50    24    52    1
    51    24    53    1
    52    25    26    1
    53    26    27    1
    54    26    28    1
    55    26    29    1
    56    28    54    1
    57    28    55    1
    58    28    56    1
    59    29    57    1
    60    29    58    1
    61    30    59    1
@<TRIPOS>SUBSTRUCTURE
     1 ZINC000062291520        1 TEMP              0 ****  ****    0 ROOT


##########                                Name:    ZINC000150894060
##########                DOCK_Rotatable_Bonds:                  10
##########                         Heavy_Atoms:                  27
##########                    Molecular_Weight:              366.42
##########                DOCK_Rotatable_Bonds:                  10
##########                       Formal_Charge:        -6.70552e-07
##########                     HBond_Acceptors:                   7
##########                        HBond_Donors:                   2
##########                         Heavy_Atoms:                  27
##########                          Grid_Score:          -36.091316
##########                     Grid_vdw_energy:          -34.818378
##########                      Grid_es_energy:           -1.272939
##########           Internal_energy_repulsive:           11.850765

@<TRIPOS>MOLECULE
ZINC000150894060
 49 51 1 0 0
SMALL
USER_CHARGES


@<TRIPOS>ATOM
      1 C1        -10.2507   -1.2325   57.2868 C.3     1  ZINC000150894060   -0.1000
      2 C2         -9.7466   -1.0376   58.6937 C.2     1  ZINC000150894060   -0.0800
      3 C3        -10.4706   -1.1670   59.8440 C.2     1  ZINC000150894060   -0.1000
      4 C4        -11.8905   -1.5229   59.9333 C.2     1  ZINC000150894060    0.6100
      5 O5        -12.5266   -1.2420   60.9320 O.2     1  ZINC000150894060   -0.5100
      6 N6        -12.4909   -2.1610   58.9092 N.am    1  ZINC000150894060   -0.7200
      7 C7        -13.9098   -2.5150   58.9976 C.3     1  ZINC000150894060    0.1200
      8 C8        -14.5308   -2.4854   57.5996 C.3     1  ZINC000150894060   -0.1500
      9 C9        -13.9971   -3.6616   56.7795 C.3     1  ZINC000150894060    0.1200
     10 N10       -14.7332   -3.7498   55.5159 N.am    1  ZINC000150894060   -0.7300
     11 C11       -14.8695   -4.9392   54.8970 C.2     1  ZINC000150894060    0.5600
     12 O12       -14.3829   -5.9391   55.3880 O.2     1  ZINC000150894060   -0.5300
     13 C13       -15.6108   -5.0279   53.6209 C.ar    1  ZINC000150894060   -0.1300
     14 C14       -16.4248   -3.9719   53.2084 C.ar    1  ZINC000150894060   -0.0900
     15 C15       -17.1135   -4.0607   52.0163 C.ar    1  ZINC000150894060   -0.0900
     16 C16       -16.9989   -5.1937   51.2304 C.ar    1  ZINC000150894060   -0.0800
     17 C17       -17.7546   -5.2841   49.9298 C.3     1  ZINC000150894060    0.1700
     18 N18       -16.8733   -4.8971   48.8252 N.pl3   1  ZINC000150894060   -0.3700
     19 C19       -16.7760   -3.6660   48.2812 C.2     1  ZINC000150894060    0.0500
     20 C20       -15.8553   -3.7242   47.2912 C.2     1  ZINC000150894060   -0.2700
     21 C21       -15.3733   -5.0357   47.2283 C.2     1  ZINC000150894060    0.0400
     22 N22       -15.9785   -5.7383   48.1514 N.2     1  ZINC000150894060   -0.2900
     23 C23       -16.1933   -6.2439   51.6334 C.ar    1  ZINC000150894060   -0.1100
     24 C24       -15.4951   -6.1657   52.8207 C.ar    1  ZINC000150894060   -0.0600
     25 O25        -9.6508   -0.9100   60.8843 O.3     1  ZINC000150894060   -0.1700
     26 C26        -8.4265   -0.6212   60.4247 C.2     1  ZINC000150894060    0.0000
     27 C27        -8.4404   -0.6938   59.0754 C.2     1  ZINC000150894060   -0.2300
     28 H28       -10.1240   -2.2755   56.9968 H       1  ZINC000150894060    0.0800
     29 H29       -11.3070   -0.9680   57.2395 H       1  ZINC000150894060    0.0900
     30 H30        -9.6856   -0.5951   56.6068 H       1  ZINC000150894060    0.0700
     31 H31       -11.9836   -2.3859   58.1136 H       1  ZINC000150894060    0.4100
     32 H32       -14.0091   -3.5156   59.4182 H       1  ZINC000150894060    0.0800
     33 H33       -14.4237   -1.7987   59.6387 H       1  ZINC000150894060    0.0800
     34 H34       -15.6150   -2.5621   57.6819 H       1  ZINC000150894060    0.0800
     35 H35       -14.2693   -1.5496   57.1056 H       1  ZINC000150894060    0.0800
     36 H36       -12.9377   -3.5096   56.5730 H       1  ZINC000150894060    0.0800
     37 H37       -14.1287   -4.5860   57.3418 H       1  ZINC000150894060    0.0800
     38 H38       -15.1225   -2.9521   55.1247 H       1  ZINC000150894060    0.4000
     39 H39       -16.5157   -3.0872   53.8211 H       1  ZINC000150894060    0.1300
     40 H40       -17.7438   -3.2443   51.6959 H       1  ZINC000150894060    0.1300
     41 H41       -18.0977   -6.3077   49.7792 H       1  ZINC000150894060    0.1100
     42 H42       -18.6135   -4.6139   49.9612 H       1  ZINC000150894060    0.1000
     43 H43       -17.3335   -2.7912   48.5817 H       1  ZINC000150894060    0.1700
     44 H44       -15.5473   -2.9031   46.6609 H       1  ZINC000150894060    0.1500
     45 H45       -14.6268   -5.4037   46.5399 H       1  ZINC000150894060    0.1800
     46 H46       -16.1079   -7.1255   51.0153 H       1  ZINC000150894060    0.1300
     47 H47       -14.8664   -6.9860   53.1339 H       1  ZINC000150894060    0.1400
     48 H48        -7.5684   -0.3749   61.0325 H       1  ZINC000150894060    0.2100
     49 H49        -7.6051   -0.5145   58.4147 H       1  ZINC000150894060    0.1600
@<TRIPOS>BOND
     1     1     2    1
     2     1    28    1
     3     1    29    1
     4     1    30    1
     5     2    27    1
     6     2     3    2
     7     3     4    1
     8     3    25    1
     9     4     5    2
    10     4     6   am
    11     6     7    1
    12     6    31    1
    13     7     8    1
    14     7    32    1
    15     7    33    1
    16     8     9    1
    17     8    34    1
    18     8    35    1
    19     9    10    1
    20     9    36    1
    21     9    37    1
    22    10    11   am
    23    10    38    1
    24    11    12    2
    25    11    13    1
    26    13    24   ar
    27    13    14   ar
    28    14    15   ar
    29    14    39    1
    30    15    16   ar
    31    15    40    1
    32    16    17    1
    33    16    23   ar
    34    17    18    1
    35    17    41    1
    36    17    42    1
    37    18    22    1
    38    18    19    1
    39    19    20    2
    40    19    43    1
    41    20    21    1
    42    20    44    1
    43    21    22    2
    44    21    45    1
    45    23    24   ar
    46    23    46    1
    47    24    47    1
    48    25    26    1
    49    26    27    2
    50    26    48    1
    51    27    49    1
@<TRIPOS>SUBSTRUCTURE
     1 ZINC000150894060        1 TEMP              0 ****  ****    0 ROOT


##########                                Name:    ZINC000826435081
##########                DOCK_Rotatable_Bonds:                   7
##########                         Heavy_Atoms:                  28
##########                    Molecular_Weight:             388.361
##########                DOCK_Rotatable_Bonds:                   7
##########                       Formal_Charge:           0.0099996
##########                     HBond_Acceptors:                  12
##########                        HBond_Donors:                   3
##########                         Heavy_Atoms:                  28
##########                          Grid_Score:          -36.077385
##########                     Grid_vdw_energy:          -34.620468
##########                      Grid_es_energy:           -1.456916
##########           Internal_energy_repulsive:            6.773706

@<TRIPOS>MOLECULE
ZINC000826435081
 45 48 1 0 0
SMALL
USER_CHARGES


@<TRIPOS>ATOM
      1 O1         -6.9902    1.2093   51.9862 O.2     1  ZINC000826435081   -0.5700
      2 C2         -7.2148    0.2842   51.2298 C.2     1  ZINC000826435081    0.7200
      3 N3         -8.1097   -0.6638   51.5717 N.am    1  ZINC000826435081   -0.7300
      4 C4         -8.8074   -0.5830   52.8573 C.3     1  ZINC000826435081    0.1500
      5 C5        -10.0226    0.3365   52.7212 C.3     1  ZINC000826435081    0.0400
      6 H6         -9.6887    1.3532   52.5140 H       1  ZINC000826435081    0.0800
      7 C7        -10.8273    0.3174   54.0240 C.3     1  ZINC000826435081    0.0300
      8 O8        -12.0191    1.0900   53.8509 O.3     1  ZINC000826435081   -0.3800
      9 C9        -12.8490    0.6303   52.7798 C.3     1  ZINC000826435081    0.0200
     10 C10       -12.0442    0.6494   51.4770 C.3     1  ZINC000826435081    0.0200
     11 O11       -10.8517   -0.1222   51.6491 O.3     1  ZINC000826435081   -0.3700
     12 N12        -6.5729    0.2098   50.0470 N.am    1  ZINC000826435081   -0.6400
     13 C13        -5.6425    1.1953   49.6916 C.2     1  ZINC000826435081    0.3300
     14 N14        -4.3710    0.9964   49.4349 N.2     1  ZINC000826435081   -0.2800
     15 N15        -3.7892    2.2314   49.1210 N.pl3   1  ZINC000826435081   -0.3300
     16 C16        -2.4477    2.4483   48.7870 C.ar    1  ZINC000826435081    0.2200
     17 C17        -1.9669    2.0554   47.5470 C.ar    1  ZINC000826435081   -0.1300
     18 C18        -0.6420    2.2698   47.2176 C.ar    1  ZINC000826435081   -0.0500
     19 C19         0.2130    2.8760   48.1201 C.ar    1  ZINC000826435081   -0.1500
     20 C20        -0.2516    3.2733   49.3606 C.ar    1  ZINC000826435081    0.1500
     21 F21         0.5865    3.8655   50.2391 F       1  ZINC000826435081   -0.1100
     22 C22        -1.5880    3.0675   49.7007 C.ar    1  ZINC000826435081   -0.0500
     23 C23        -2.0928    3.4914   51.0298 C.2     1  ZINC000826435081    0.2100
     24 N24        -2.4882    2.7034   52.0102 N.2     1  ZINC000826435081   -0.2800
     25 N25        -2.8529    3.4512   52.9943 N.pl3   1  ZINC000826435081   -0.2300
     26 N26        -2.7013    4.6874   52.6691 N.2     1  ZINC000826435081   -0.0500
     27 N27        -2.2303    4.7505   51.4700 N.2     1  ZINC000826435081   -0.2300
     28 C28        -4.7570    3.1810   49.1982 C.2     1  ZINC000826435081    0.0700
     29 C29        -5.9111    2.5661   49.5426 C.2     1  ZINC000826435081   -0.2400
     30 H30        -8.2918   -1.3997   50.9664 H       1  ZINC000826435081    0.4000
     31 H31        -9.1365   -1.5785   53.1553 H       1  ZINC000826435081    0.0800
     32 H32        -8.1316   -0.1824   53.6130 H       1  ZINC000826435081    0.0900
     33 H33       -11.0923   -0.7099   54.2735 H       1  ZINC000826435081    0.0700
     34 H34       -10.2291    0.7459   54.8280 H       1  ZINC000826435081    0.1100
     35 H35       -13.1818   -0.3866   52.9874 H       1  ZINC000826435081    0.0600
     36 H36       -13.7147    1.2855   52.6828 H       1  ZINC000826435081    0.1100
     37 H37       -12.6425    0.2209   50.6729 H       1  ZINC000826435081    0.1100
     38 H38       -11.7793    1.6768   51.2275 H       1  ZINC000826435081    0.0600
     39 H39        -6.7549   -0.5261   49.4419 H       1  ZINC000826435081    0.4100
     40 H40        -2.6289    1.5809   46.8377 H       1  ZINC000826435081    0.1500
     41 H41        -0.2723    1.9620   46.2506 H       1  ZINC000826435081    0.1500
     42 H42         1.2472    3.0392   47.8552 H       1  ZINC000826435081    0.1500
     43 H43        -3.1889    3.1325   53.8466 H       1  ZINC000826435081    0.4800
     44 H44        -4.6290    4.2373   49.0128 H       1  ZINC000826435081    0.1800
     45 H45        -6.8684    3.0451   49.6854 H       1  ZINC000826435081    0.1800
@<TRIPOS>BOND
     1     1     2    2
     2     2     3   am
     3     2    12   am
     4     3     4    1
     5     3    30    1
     6     4     5    1
     7     4    31    1
     8     4    32    1
     9     5     6    1
    10     5    11    1
    11     5     7    1
    12     7     8    1
    13     7    33    1
    14     7    34    1
    15     8     9    1
    16     9    10    1
    17     9    35    1
    18     9    36    1
    19    10    11    1
    20    10    37    1
    21    10    38    1
    22    12    13    1
    23    12    39    1
    24    13    29    1
    25    13    14    2
    26    14    15    1
    27    15    16    1
    28    15    28    1
    29    16    22   ar
    30    16    17   ar
    31    17    18   ar
    32    17    40    1
    33    18    19   ar
    34    18    41    1
    35    19    20   ar
    36    19    42    1
    37    20    21    1
    38    20    22   ar
    39    22    23    1
    40    23    27    1
    41    23    24    2
    42    24    25    1
    43    25    26    1
    44    25    43    1
    45    26    27    2
    46    28    29    2
    47    28    44    1
    48    29    45    1
@<TRIPOS>SUBSTRUCTURE
     1 ZINC000826435081        1 TEMP              0 ****  ****    0 ROOT


##########                                Name:    ZINC000506566356
##########                DOCK_Rotatable_Bonds:                  10
##########                         Heavy_Atoms:                  28
##########                    Molecular_Weight:               415.9
##########                DOCK_Rotatable_Bonds:                  10
##########                       Formal_Charge:           0.0199998
##########                     HBond_Acceptors:                   8
##########                        HBond_Donors:                   2
##########                         Heavy_Atoms:                  28
##########                          Grid_Score:          -35.978752
##########                     Grid_vdw_energy:          -30.818445
##########                      Grid_es_energy:           -5.160309
##########           Internal_energy_repulsive:            6.369923

@<TRIPOS>MOLECULE
ZINC000506566356
 46 48 1 0 0
SMALL
USER_CHARGES


@<TRIPOS>ATOM
      1 O1         -6.3189    4.9961   54.5782 O.2     1  ZINC000506566356   -0.5100
      2 C2         -5.5332    4.1117   54.3073 C.2     1  ZINC000506566356    0.5100
      3 N3         -5.2248    3.1785   55.2295 N.am    1  ZINC000506566356   -0.7000
      4 C4         -5.8333    3.2352   56.5609 C.3     1  ZINC000506566356    0.1200
      5 C5         -7.1982    2.5446   56.5276 C.3     1  ZINC000506566356   -0.0900
      6 C6         -7.7638    2.4822   57.9230 C.ar    1  ZINC000506566356   -0.0700
      7 C7         -8.5217    3.5311   58.4089 C.ar    1  ZINC000506566356   -0.1100
      8 C8         -9.0414    3.4744   59.6889 C.ar    1  ZINC000506566356   -0.1000
      9 C9         -8.8029    2.3692   60.4834 C.ar    1  ZINC000506566356   -0.1100
     10 C10        -8.0442    1.3189   59.9976 C.ar    1  ZINC000506566356   -0.0300
     11 Cl11       -7.7447   -0.0701   60.9950 Cl      1  ZINC000506566356   -0.0700
     12 C12        -7.5294    1.3736   58.7149 C.ar    1  ZINC000506566356   -0.1000
     13 C13        -4.9128    4.0539   52.9501 C.2     1  ZINC000506566356    0.5100
     14 O14        -5.1349    4.9333   52.1434 O.2     1  ZINC000506566356   -0.5000
     15 N15        -4.1064    3.0254   52.6210 N.am    1  ZINC000506566356   -0.6300
     16 C16        -3.5254    2.9712   51.3497 C.ar    1  ZINC000506566356    0.1100
     17 C17        -2.2078    3.3672   51.1695 C.ar    1  ZINC000506566356   -0.0800
     18 C18        -1.6361    3.3128   49.9124 C.ar    1  ZINC000506566356   -0.1400
     19 C19        -2.3738    2.8646   48.8324 C.ar    1  ZINC000506566356   -0.0900
     20 C20        -3.6876    2.4687   49.0037 C.ar    1  ZINC000506566356   -0.1900
     21 C21        -4.2667    2.5140   50.2612 C.ar    1  ZINC000506566356    0.1200
     22 O22        -5.5583    2.1252   50.4313 O.3     1  ZINC000506566356   -0.3100
     23 C23        -5.7855    0.7502   50.7478 C.3     1  ZINC000506566356    0.1400
     24 C24        -7.1491    0.5969   51.3708 C.2     1  ZINC000506566356    0.0500
     25 C25        -7.9663    1.6322   51.5854 C.2     1  ZINC000506566356   -0.2300
     26 S26        -9.4422    1.0142   52.3235 S.3     1  ZINC000506566356    0.1400
     27 C27        -8.8135   -0.5749   52.2699 C.2     1  ZINC000506566356    0.0200
     28 N28        -7.6355   -0.5698   51.7435 N.2     1  ZINC000506566356   -0.4700
     29 H29        -4.5997    2.4694   55.0117 H       1  ZINC000506566356    0.4200
     30 H30        -5.1871    2.7284   57.2776 H       1  ZINC000506566356    0.0800
     31 H31        -5.9600    4.2761   56.8585 H       1  ZINC000506566356    0.0800
     32 H32        -7.8752    3.1087   55.8860 H       1  ZINC000506566356    0.0900
     33 H33        -7.0845    1.5337   56.1361 H       1  ZINC000506566356    0.0900
     34 H34        -8.7077    4.3953   57.7885 H       1  ZINC000506566356    0.1300
     35 H35        -9.6335    4.2942   60.0679 H       1  ZINC000506566356    0.1300
     36 H36        -9.2083    2.3254   61.4835 H       1  ZINC000506566356    0.1300
     37 H37        -6.9372    0.5542   58.3352 H       1  ZINC000506566356    0.1300
     38 H38        -3.9289    2.3226   53.2657 H       1  ZINC000506566356    0.4300
     39 H39        -1.6293    3.7180   52.0113 H       1  ZINC000506566356    0.1500
     40 H40        -0.6106    3.6216   49.7732 H       1  ZINC000506566356    0.1300
     41 H41        -1.9227    2.8238   47.8519 H       1  ZINC000506566356    0.1300
     42 H42        -4.2611    2.1198   48.1576 H       1  ZINC000506566356    0.1400
     43 H43        -5.7332    0.1543   49.8366 H       1  ZINC000506566356    0.0900
     44 H44        -5.0249    0.4084   51.4496 H       1  ZINC000506566356    0.0900
     45 H45        -7.7590    2.6652   51.3485 H       1  ZINC000506566356    0.1800
     46 H46        -9.3296   -1.4561   52.6217 H       1  ZINC000506566356    0.2100
@<TRIPOS>BOND
     1     1     2    2
     2     2     3   am
     3     2    13    1
     4     3     4    1
     5     3    29    1
     6     4     5    1
     7     4    30    1
     8     4    31    1
     9     5     6    1
    10     5    32    1
    11     5    33    1
    12     6    12   ar
    13     6     7   ar
    14     7     8   ar
    15     7    34    1
    16     8     9   ar
    17     8    35    1
    18     9    10   ar
    19     9    36    1
    20    10    11    1
    21    10    12   ar
    22    12    37    1
    23    13    14    2
    24    13    15   am
    25    15    16    1
    26    15    38    1
    27    16    21   ar
    28    16    17   ar
    29    17    18   ar
    30    17    39    1
    31    18    19   ar
    32    18    40    1
    33    19    20   ar
    34    19    41    1
    35    20    21   ar
    36    20    42    1
    37    21    22    1
    38    22    23    1
    39    23    24    1
    40    23    43    1
    41    23    44    1
    42    24    28    1
    43    24    25    2
    44    25    26    1
    45    25    45    1
    46    26    27    1
    47    27    28    2
    48    27    46    1
@<TRIPOS>SUBSTRUCTURE
     1 ZINC000506566356        1 TEMP              0 ****  ****    0 ROOT


##########                                Name:    ZINC000494558165
##########                DOCK_Rotatable_Bonds:                  11
##########                         Heavy_Atoms:                  28
##########                    Molecular_Weight:             409.506
##########                DOCK_Rotatable_Bonds:                  11
##########                       Formal_Charge:        -6.55651e-07
##########                     HBond_Acceptors:                   9
##########                        HBond_Donors:                   3
##########                         Heavy_Atoms:                  28
##########                          Grid_Score:          -35.948566
##########                     Grid_vdw_energy:          -34.498264
##########                      Grid_es_energy:           -1.450301
##########           Internal_energy_repulsive:           31.657356

@<TRIPOS>MOLECULE
ZINC000494558165
 55 57 1 0 0
SMALL
USER_CHARGES


@<TRIPOS>ATOM
      1 O1         -7.5304   -0.3051   58.3770 O.2     1  ZINC000494558165   -0.4400
      2 C2         -8.0508    0.7891   58.4153 C.2     1  ZINC000494558165    0.5100
      3 C3         -8.3717    1.5162   57.1349 C.3     1  ZINC000494558165    0.0300
      4 N4         -9.4087    0.7795   56.4001 N.3     1  ZINC000494558165   -0.5000
      5 C5        -10.6591    0.7229   57.1691 C.3     1  ZINC000494558165    0.0500
      6 C6        -10.9819   -0.7330   57.5112 C.3     1  ZINC000494558165   -0.1100
      7 C7        -11.3055   -0.8468   59.0022 C.3     1  ZINC000494558165    0.0800
      8 O8        -11.6177   -2.2047   59.3195 O.3     1  ZINC000494558165   -0.5700
      9 C9         -9.6328    1.3688   55.0732 C.3     1  ZINC000494558165    0.1200
     10 H10       -10.1139    2.3422   55.1688 H       1  ZINC000494558165    0.1000
     11 C11       -10.4969    0.4270   54.2080 C.3     1  ZINC000494558165   -0.1200
     12 C12        -9.4334   -0.4058   53.4611 C.3     1  ZINC000494558165   -0.0900
     13 C13        -8.2070    0.4795   53.4018 C.ar    1  ZINC000494558165   -0.0900
     14 C14        -7.0802    0.3990   52.6013 C.ar    1  ZINC000494558165   -0.1100
     15 C15        -6.0709    1.3341   52.7257 C.ar    1  ZINC000494558165   -0.1100
     16 C16        -6.1855    2.3536   53.6518 C.ar    1  ZINC000494558165   -0.1200
     17 C17        -7.3091    2.4356   54.4514 C.ar    1  ZINC000494558165   -0.1000
     18 C18        -8.3213    1.5017   54.3293 C.ar    1  ZINC000494558165   -0.1300
     19 N19        -8.3476    1.3530   59.6029 N.am    1  ZINC000494558165   -0.6900
     20 C20        -8.0607    0.7027   60.7481 C.2     1  ZINC000494558165    0.7000
     21 O21        -7.5359   -0.3928   60.7098 O.2     1  ZINC000494558165   -0.5200
     22 N22        -8.3560    1.2673   61.9358 N.am    1  ZINC000494558165   -0.7300
     23 C23        -8.0426    0.5613   63.1806 C.3     1  ZINC000494558165    0.1700
     24 H24        -7.1992   -0.1100   63.0187 H       1  ZINC000494558165    0.1200
     25 C25        -7.6895    1.5801   64.2784 C.3     1  ZINC000494558165   -0.1400
     26 C26        -7.6983    0.8058   65.6217 C.3     1  ZINC000494558165   -0.5800
     27 S27        -9.1903   -0.2472   65.4652 S.o2    1  ZINC000494558165    2.4000
     28 O28        -8.8926   -1.5575   65.9277 O.2     1  ZINC000494558165   -0.9300
     29 O29       -10.3145    0.4487   65.9858 O.2     1  ZINC000494558165   -0.9300
     30 C30        -9.2704   -0.2502   63.6394 C.3     1  ZINC000494558165   -0.6200
     31 H31        -8.7329    2.5182   57.3667 H       1  ZINC000494558165    0.0700
     32 H32        -7.4730    1.5867   56.5221 H       1  ZINC000494558165    0.1200
     33 H33       -10.5459    1.2959   58.0894 H       1  ZINC000494558165    0.0900
     34 H34       -11.4700    1.1451   56.5756 H       1  ZINC000494558165    0.0400
     35 H35       -11.8414   -1.0616   56.9267 H       1  ZINC000494558165    0.0700
     36 H36       -10.1220   -1.3604   57.2770 H       1  ZINC000494558165    0.0800
     37 H37       -10.4431   -0.5261   59.5867 H       1  ZINC000494558165    0.0500
     38 H38       -12.1603   -0.2129   59.2379 H       1  ZINC000494558165    0.0400
     39 H39       -10.8759   -2.8150   59.2092 H       1  ZINC000494558165    0.3800
     40 H40       -11.1196   -0.2119   54.8342 H       1  ZINC000494558165    0.0900
     41 H41       -11.1065    0.9961   53.5062 H       1  ZINC000494558165    0.0800
     42 H42        -9.2136   -1.3201   54.0121 H       1  ZINC000494558165    0.0800
     43 H43        -9.7775   -0.6433   52.4545 H       1  ZINC000494558165    0.0800
     44 H44        -6.9898   -0.3975   51.8777 H       1  ZINC000494558165    0.1200
     45 H45        -5.1934    1.2688   52.0995 H       1  ZINC000494558165    0.1300
     46 H46        -5.3973    3.0853   53.7506 H       1  ZINC000494558165    0.1200
     47 H47        -7.3978    3.2323   55.1751 H       1  ZINC000494558165    0.1200
     48 H48        -8.7676    2.2268   59.6336 H       1  ZINC000494558165    0.4100
     49 H49        -8.7760    2.1411   61.9663 H       1  ZINC000494558165    0.4000
     50 H50        -6.6998    1.9985   64.0951 H       1  ZINC000494558165    0.1100
     51 H51        -8.4334    2.3765   64.3017 H       1  ZINC000494558165    0.0900
     52 H52        -6.8016    0.1939   65.7213 H       1  ZINC000494558165    0.1400
     53 H53        -7.7953    1.4918   66.4631 H       1  ZINC000494558165    0.1400
     54 H54       -10.1897    0.2270   63.3002 H       1  ZINC000494558165    0.1500
     55 H55        -9.2098   -1.2701   63.2597 H       1  ZINC000494558165    0.1500
@<TRIPOS>BOND
     1     1     2    2
     2     2     3    1
     3     2    19   am
     4     3     4    1
     5     3    31    1
     6     3    32    1
     7     4     5    1
     8     4     9    1
     9     5     6    1
    10     5    33    1
    11     5    34    1
    12     6     7    1
    13     6    35    1
    14     6    36    1
    15     7     8    1
    16     7    37    1
    17     7    38    1
    18     8    39    1
    19     9    10    1
    20     9    18    1
    21     9    11    1
    22    11    12    1
    23    11    40    1
    24    11    41    1
    25    12    13    1
    26    12    42    1
    27    12    43    1
    28    13    18   ar
    29    13    14   ar
    30    14    15   ar
    31    14    44    1
    32    15    16   ar
    33    15    45    1
    34    16    17   ar
    35    16    46    1
    36    17    18   ar
    37    17    47    1
    38    19    20   am
    39    19    48    1
    40    20    21    2
    41    20    22   am
    42    22    23    1
    43    22    49    1
    44    23    24    1
    45    23    30    1
    46    23    25    1
    47    25    26    1
    48    25    50    1
    49    25    51    1
    50    26    27    1
    51    26    52    1
    52    26    53    1
    53    27    28    2
    54    27    29    2
    55    27    30    1
    56    30    54    1
    57    30    55    1
@<TRIPOS>SUBSTRUCTURE
     1 ZINC000494558165        1 TEMP              0 ****  ****    0 ROOT


##########                                Name:    ZINC000429196987
##########                DOCK_Rotatable_Bonds:                   7
##########                         Heavy_Atoms:                  28
##########                    Molecular_Weight:             403.505
##########                DOCK_Rotatable_Bonds:                   7
##########                       Formal_Charge:          -0.0399997
##########                     HBond_Acceptors:                   9
##########                        HBond_Donors:                   1
##########                         Heavy_Atoms:                  28
##########                          Grid_Score:          -35.946503
##########                     Grid_vdw_energy:          -35.629887
##########                      Grid_es_energy:           -0.316615
##########           Internal_energy_repulsive:           15.726143

@<TRIPOS>MOLECULE
ZINC000429196987
 53 55 1 0 0
SMALL
USER_CHARGES


@<TRIPOS>ATOM
      1 C1        -10.1721    1.7653   52.8837 C.3     1  ZINC000429196987    0.0800
      2 N2         -9.3659    0.5655   53.1221 N.am    1  ZINC000429196987   -0.6300
      3 C3         -9.9450   -0.5767   53.8334 C.3     1  ZINC000429196987    0.1600
      4 C4         -9.7816   -0.3791   55.3184 C.ar    1  ZINC000429196987   -0.0600
      5 C5        -10.6292   -1.0249   56.1990 C.ar    1  ZINC000429196987   -0.1300
      6 C6        -10.4792   -0.8437   57.5612 C.ar    1  ZINC000429196987   -0.0300
      7 C7         -9.4815   -0.0170   58.0428 C.ar    1  ZINC000429196987   -0.6600
      8 S8         -9.2907    0.2144   59.7791 S.o2    1  ZINC000429196987    2.5000
      9 C9         -7.5875   -0.3077   60.1210 C.3     1  ZINC000429196987   -0.6500
     10 O10        -9.4288    1.6167   59.9630 O.2     1  ZINC000429196987   -0.9400
     11 O11       -10.2167   -0.6950   60.3577 O.2     1  ZINC000429196987   -0.9400
     12 C12        -8.6331    0.6277   57.1622 C.ar    1  ZINC000429196987   -0.0300
     13 C13        -8.7805    0.4435   55.8002 C.ar    1  ZINC000429196987   -0.1100
     14 C14        -8.0914    0.5126   52.6869 C.2     1  ZINC000429196987    0.7100
     15 O15        -7.4228   -0.4837   52.8834 O.2     1  ZINC000429196987   -0.5800
     16 N16        -7.5582    1.5641   52.0339 N.am    1  ZINC000429196987   -0.7400
     17 C17        -6.1723    1.5073   51.5624 C.3     1  ZINC000429196987    0.1600
     18 C18        -6.1367    0.9239   50.1470 C.3     1  ZINC000429196987   -0.1300
     19 C19        -4.6939    0.9236   49.6368 C.3     1  ZINC000429196987    0.0700
     20 N20        -4.1745    2.2971   49.6326 N.3     1  ZINC000429196987   -0.4700
     21 C21        -2.9121    2.3508   49.0520 C.ar    1  ZINC000429196987    0.2500
     22 C22        -2.7621    2.1439   47.6813 C.ar    1  ZINC000429196987   -0.1300
     23 C23        -1.4829    2.2079   47.1517 C.ar    1  ZINC000429196987   -0.1000
     24 C24        -0.4310    2.4736   48.0171 C.ar    1  ZINC000429196987    0.0200
     25 N25        -0.6641    2.6566   49.3016 N.ar    1  ZINC000429196987   -0.2200
     26 N26        -1.8466    2.6042   49.7980 N.ar    1  ZINC000429196987   -0.2800
     27 C27        -4.1547    2.8614   50.9881 C.3     1  ZINC000429196987    0.0600
     28 C28        -5.5814    2.9197   51.5388 C.3     1  ZINC000429196987   -0.1200
     29 H29       -10.0507    2.4563   53.7179 H       1  ZINC000429196987    0.0600
     30 H30        -9.8437    2.2466   51.9625 H       1  ZINC000429196987    0.0700
     31 H31       -11.2218    1.4857   52.7933 H       1  ZINC000429196987    0.0800
     32 H32       -11.0050   -0.6557   53.5918 H       1  ZINC000429196987    0.1000
     33 H33        -9.4342   -1.4906   53.5301 H       1  ZINC000429196987    0.0900
     34 H34       -11.4087   -1.6708   55.8227 H       1  ZINC000429196987    0.1300
     35 H35       -11.1418   -1.3477   58.2492 H       1  ZINC000429196987    0.1400
     36 H36        -6.8960    0.3116   59.5495 H       1  ZINC000429196987    0.1300
     37 H37        -7.3801   -0.1967   61.1852 H       1  ZINC000429196987    0.1300
     38 H38        -7.4629   -1.3517   59.8335 H       1  ZINC000429196987    0.1300
     39 H39        -7.8532    1.2734   57.5384 H       1  ZINC000429196987    0.1400
     40 H40        -8.1177    0.9472   55.1122 H       1  ZINC000429196987    0.1400
     41 H41        -8.0919    2.3585   51.8760 H       1  ZINC000429196987    0.4000
     42 H42        -5.5854    0.8780   52.2315 H       1  ZINC000429196987    0.0900
     43 H43        -6.5167   -0.0975   50.1648 H       1  ZINC000429196987    0.0800
     44 H44        -6.7559    1.5317   49.4873 H       1  ZINC000429196987    0.0700
     45 H45        -4.0782    0.3044   50.2891 H       1  ZINC000429196987    0.0600
     46 H46        -4.6671    0.5221   48.6238 H       1  ZINC000429196987    0.0900
     47 H47        -3.6158    1.9398   47.0521 H       1  ZINC000429196987    0.1500
     48 H48        -1.3097    2.0551   46.0967 H       1  ZINC000429196987    0.1500
     49 H49         0.5788    2.5302   47.6382 H       1  ZINC000429196987    0.1700
     50 H50        -3.5414    2.2332   51.6341 H       1  ZINC000429196987    0.0500
     51 H51        -3.7363    3.8675   50.9567 H       1  ZINC000429196987    0.0900
     52 H52        -6.1919    3.5589   50.9010 H       1  ZINC000429196987    0.0800
     53 H53        -5.5647    3.3241   52.5509 H       1  ZINC000429196987    0.0800
@<TRIPOS>BOND
     1     1     2    1
     2     1    29    1
     3     1    30    1
     4     1    31    1
     5     2     3    1
     6     2    14   am
     7     3     4    1
     8     3    32    1
     9     3    33    1
    10     4    13   ar
    11     4     5   ar
    12     5     6   ar
    13     5    34    1
    14     6     7   ar
    15     6    35    1
    16     7     8    1
    17     7    12   ar
    18     8     9    1
    19     8    10    2
    20     8    11    2
    21     9    36    1
    22     9    37    1
    23     9    38    1
    24    12    13   ar
    25    12    39    1
    26    13    40    1
    27    14    15    2
    28    14    16   am
    29    16    17    1
    30    16    41    1
    31    17    28    1
    32    17    18    1
    33    17    42    1
    34    18    19    1
    35    18    43    1
    36    18    44    1
    37    19    20    1
    38    19    45    1
    39    19    46    1
    40    20    21    1
    41    20    27    1
    42    21    26   ar
    43    21    22   ar
    44    22    23   ar
    45    22    47    1
    46    23    24   ar
    47    23    48    1
    48    24    25   ar
    49    24    49    1
    50    25    26   ar
    51    27    28    1
    52    27    50    1
    53    27    51    1
    54    28    52    1
    55    28    53    1
@<TRIPOS>SUBSTRUCTURE
     1 ZINC000429196987        1 TEMP              0 ****  ****    0 ROOT


##########                                Name:    ZINC000482540246
##########                DOCK_Rotatable_Bonds:                  10
##########                         Heavy_Atoms:                  30
##########                    Molecular_Weight:              409.46
##########                DOCK_Rotatable_Bonds:                  10
##########                       Formal_Charge:         2.83122e-07
##########                     HBond_Acceptors:                   7
##########                        HBond_Donors:                   2
##########                         Heavy_Atoms:                  30
##########                          Grid_Score:          -35.856602
##########                     Grid_vdw_energy:          -33.297756
##########                      Grid_es_energy:           -2.558844
##########           Internal_energy_repulsive:           12.289585

@<TRIPOS>MOLECULE
ZINC000482540246
 54 56 1 0 0
SMALL
USER_CHARGES


@<TRIPOS>ATOM
      1 C1        -13.8039    2.5555   52.0084 C.3     1  ZINC000482540246    0.0400
      2 O2        -12.6009    3.3139   51.8678 O.3     1  ZINC000482540246   -0.3100
      3 C3        -12.1968    3.5991   50.6045 C.ar    1  ZINC000482540246    0.3300
      4 C4        -11.0327    4.3293   50.4031 C.ar    1  ZINC000482540246   -0.1800
      5 C5        -10.6314    4.6137   49.1093 C.ar    1  ZINC000482540246   -0.0100
      6 C6         -9.3742    5.4028   48.8482 C.3     1  ZINC000482540246    0.2000
      7 H7         -9.0898    5.9424   49.7515 H       1  ZINC000482540246    0.1000
      8 C8         -9.6244    6.4006   47.7156 C.3     1  ZINC000482540246   -0.1600
      9 N9         -8.2951    4.4893   48.4647 N.am    1  ZINC000482540246   -0.7400
     10 C10        -7.4299    4.0400   49.3954 C.2     1  ZINC000482540246    0.7100
     11 O11        -7.5441    4.3943   50.5529 O.2     1  ZINC000482540246   -0.5800
     12 N12        -6.4381    3.1983   49.0429 N.am    1  ZINC000482540246   -0.7400
     13 C13        -5.4987    2.7087   50.0549 C.3     1  ZINC000482540246    0.2100
     14 H14        -5.1115    3.5505   50.6289 H       1  ZINC000482540246    0.1200
     15 C15        -4.3398    1.9844   49.3669 C.3     1  ZINC000482540246    0.0500
     16 O16        -3.5598    2.9271   48.6288 O.3     1  ZINC000482540246   -0.3000
     17 C17        -2.2295    2.6715   48.5132 C.ar    1  ZINC000482540246    0.1000
     18 C18        -1.7263    2.1264   47.3422 C.ar    1  ZINC000482540246   -0.1800
     19 C19        -0.3734    1.8679   47.2266 C.ar    1  ZINC000482540246   -0.0900
     20 C20         0.4788    2.1522   48.2769 C.ar    1  ZINC000482540246   -0.1300
     21 C21        -0.0191    2.6957   49.4472 C.ar    1  ZINC000482540246   -0.1200
     22 C22        -1.3709    2.9618   49.5663 C.ar    1  ZINC000482540246    0.0700
     23 F23        -1.8577    3.4927   50.7093 F       1  ZINC000482540246   -0.1300
     24 C24        -6.2091    1.7543   50.9799 C.ar    1  ZINC000482540246   -0.1000
     25 C25        -6.1912    1.9725   52.3448 C.ar    1  ZINC000482540246   -0.0800
     26 C26        -6.8429    1.0970   53.1932 C.ar    1  ZINC000482540246   -0.1200
     27 C27        -7.5129    0.0037   52.6768 C.ar    1  ZINC000482540246   -0.1200
     28 C28        -7.5316   -0.2139   51.3118 C.ar    1  ZINC000482540246   -0.1200
     29 C29        -6.8835    0.6639   50.4630 C.ar    1  ZINC000482540246   -0.1000
     30 C30       -11.4127    4.1552   48.0580 C.ar    1  ZINC000482540246   -0.2100
     31 C31       -12.5584    3.4345   48.3320 C.ar    1  ZINC000482540246    0.1500
     32 N32       -12.9124    3.1746   49.5761 N.ar    1  ZINC000482540246   -0.5400
     33 H33       -14.0126    2.3980   53.0666 H       1  ZINC000482540246    0.1000
     34 H34       -14.6314    3.0987   51.5519 H       1  ZINC000482540246    0.0600
     35 H35       -13.6855    1.5913   51.5140 H       1  ZINC000482540246    0.0600
     36 H36       -10.4486    4.6710   51.2449 H       1  ZINC000482540246    0.1500
     37 H37        -9.9089    5.8610   46.8123 H       1  ZINC000482540246    0.0600
     38 H38       -10.4274    7.0802   48.0010 H       1  ZINC000482540246    0.0700
     39 H39        -8.7152    6.9713   47.5268 H       1  ZINC000482540246    0.0700
     40 H40        -8.2033    4.2076   47.5411 H       1  ZINC000482540246    0.4000
     41 H41        -6.3463    2.9166   48.1193 H       1  ZINC000482540246    0.4000
     42 H42        -3.7137    1.5044   50.1191 H       1  ZINC000482540246    0.0800
     43 H43        -4.7353    1.2291   48.6878 H       1  ZINC000482540246    0.0800
     44 H44        -2.3911    1.9034   46.5208 H       1  ZINC000482540246    0.1400
     45 H45         0.0183    1.4428   46.3143 H       1  ZINC000482540246    0.1300
     46 H46         1.5354    1.9491   48.1838 H       1  ZINC000482540246    0.1400
     47 H47         0.6489    2.9165   50.2667 H       1  ZINC000482540246    0.1400
     48 H48        -5.6677    2.8266   52.7483 H       1  ZINC000482540246    0.1200
     49 H49        -6.8282    1.2670   54.2597 H       1  ZINC000482540246    0.1200
     50 H50        -8.0214   -0.6805   53.3398 H       1  ZINC000482540246    0.1200
     51 H51        -8.0547   -1.0682   50.9083 H       1  ZINC000482540246    0.1200
     52 H52        -6.8981    0.4939   49.3966 H       1  ZINC000482540246    0.1200
     53 H53       -11.1280    4.3600   47.0366 H       1  ZINC000482540246    0.1400
     54 H54       -13.1700    3.0754   47.5176 H       1  ZINC000482540246    0.1600
@<TRIPOS>BOND
     1     1     2    1
     2     1    33    1
     3     1    34    1
     4     1    35    1
     5     2     3    1
     6     3    32   ar
     7     3     4   ar
     8     4     5   ar
     9     4    36    1
    10     5     6    1
    11     5    30   ar
    12     6     7    1
    13     6     8    1
    14     6     9    1
    15     8    37    1
    16     8    38    1
    17     8    39    1
    18     9    10   am
    19     9    40    1
    20    10    11    2
    21    10    12   am
    22    12    13    1
    23    12    41    1
    24    13    14    1
    25    13    15    1
    26    13    24    1
    27    15    16    1
    28    15    42    1
    29    15    43    1
    30    16    17    1
    31    17    22   ar
    32    17    18   ar
    33    18    19   ar
    34    18    44    1
    35    19    20   ar
    36    19    45    1
    37    20    21   ar
    38    20    46    1
    39    21    22   ar
    40    21    47    1
    41    22    23    1
    42    24    29   ar
    43    24    25   ar
    44    25    26   ar
    45    25    48    1
    46    26    27   ar
    47    26    49    1
    48    27    28   ar
    49    27    50    1
    50    28    29   ar
    51    28    51    1
    52    29    52    1
    53    30    31   ar
    54    30    53    1
    55    31    32   ar
    56    31    54    1
@<TRIPOS>SUBSTRUCTURE
     1 ZINC000482540246        1 TEMP              0 ****  ****    0 ROOT


##########                                Name:    ZINC000426567005
##########                DOCK_Rotatable_Bonds:                   9
##########                         Heavy_Atoms:                  31
##########                    Molecular_Weight:             417.467
##########                DOCK_Rotatable_Bonds:                   9
##########                       Formal_Charge:        -2.23517e-07
##########                     HBond_Acceptors:                   8
##########                        HBond_Donors:                   4
##########                         Heavy_Atoms:                  31
##########                          Grid_Score:          -35.692905
##########                     Grid_vdw_energy:          -34.121838
##########                      Grid_es_energy:           -1.571068
##########           Internal_energy_repulsive:           13.983644

@<TRIPOS>MOLECULE
ZINC000426567005
 54 57 1 0 0
SMALL
USER_CHARGES


@<TRIPOS>ATOM
      1 O1         -6.2272    0.1366   49.8565 O.2     1  ZINC000426567005   -0.4900
      2 C2         -6.3658    0.5793   50.9782 C.2     1  ZINC000426567005    0.5200
      3 N3         -5.4952    1.4909   51.4552 N.am    1  ZINC000426567005   -0.6000
      4 C4         -4.4282    1.9226   50.6595 C.2     1  ZINC000426567005    0.3000
      5 N5         -4.3106    1.7446   49.3642 N.2     1  ZINC000426567005   -0.3100
      6 N6         -3.1039    2.3240   48.9517 N.pl3   1  ZINC000426567005   -0.4600
      7 C7         -2.5017    2.8543   50.0372 C.2     1  ZINC000426567005    0.1100
      8 C8         -1.1795    3.5773   50.0536 C.3     1  ZINC000426567005   -0.0300
      9 C9         -0.4596    3.3601   51.4076 C.3     1  ZINC000426567005   -0.1200
     10 C10         1.0265    3.6074   51.0479 C.3     1  ZINC000426567005   -0.1300
     11 C11         1.1844    2.9877   49.6441 C.3     1  ZINC000426567005   -0.1300
     12 C12        -0.2183    2.9685   49.0118 C.3     1  ZINC000426567005   -0.1200
     13 C13        -3.2983    2.6276   51.1060 C.2     1  ZINC000426567005   -0.2600
     14 C14        -7.5039    0.1188   51.8269 C.2     1  ZINC000426567005    0.5200
     15 O15        -8.0445   -0.9426   51.5935 O.2     1  ZINC000426567005   -0.4900
     16 N16        -7.9314    0.8816   52.8526 N.am    1  ZINC000426567005   -0.6400
     17 C17        -8.9934    0.4519   53.6445 C.ar    1  ZINC000426567005    0.1700
     18 C18        -8.8193    0.3004   55.0171 C.ar    1  ZINC000426567005   -0.1300
     19 C19        -9.8670   -0.1241   55.8026 C.ar    1  ZINC000426567005   -0.0300
     20 C20       -11.1068   -0.4026   55.2205 C.ar    1  ZINC000426567005   -0.1500
     21 C21       -12.2323   -0.8574   56.0598 C.2     1  ZINC000426567005    0.5600
     22 O22       -12.9953   -0.0450   56.5458 O.2     1  ZINC000426567005   -0.5100
     23 N23       -12.4143   -2.1733   56.2876 N.am    1  ZINC000426567005   -0.6700
     24 C24       -13.4808   -2.6043   57.0828 C.ar    1  ZINC000426567005    0.1400
     25 C25       -13.3100   -2.7577   58.4526 C.ar    1  ZINC000426567005   -0.1500
     26 C26       -14.3654   -3.1830   59.2354 C.ar    1  ZINC000426567005   -0.1000
     27 C27       -15.5913   -3.4560   58.6566 C.ar    1  ZINC000426567005   -0.1300
     28 C28       -15.7647   -3.3046   57.2930 C.ar    1  ZINC000426567005   -0.1000
     29 C29       -14.7149   -2.8742   56.5055 C.ar    1  ZINC000426567005   -0.1200
     30 C30       -11.2786   -0.2491   53.8420 C.ar    1  ZINC000426567005   -0.0600
     31 C31       -10.2282    0.1804   53.0626 C.ar    1  ZINC000426567005   -0.1400
     32 H32        -5.6083    1.8478   52.3501 H       1  ZINC000426567005    0.4300
     33 H33        -2.7609    2.3411   48.0444 H       1  ZINC000426567005    0.4400
     34 H34        -1.3249    4.6406   49.8628 H       1  ZINC000426567005    0.1100
     35 H35        -0.8032    4.0822   52.1481 H       1  ZINC000426567005    0.0800
     36 H36        -0.6061    2.3403   51.7637 H       1  ZINC000426567005    0.0700
     37 H37         1.2393    4.6761   51.0192 H       1  ZINC000426567005    0.0700
     38 H38         1.6803    3.1064   51.7619 H       1  ZINC000426567005    0.0700
     39 H39         1.8576    3.5965   49.0407 H       1  ZINC000426567005    0.0700
     40 H40         1.5710    1.9718   49.7257 H       1  ZINC000426567005    0.0700
     41 H41        -0.5124    1.9434   48.7867 H       1  ZINC000426567005    0.0600
     42 H42        -0.2258    3.5680   48.1016 H       1  ZINC000426567005    0.0700
     43 H43        -3.0980    2.9288   52.1235 H       1  ZINC000426567005    0.1700
     44 H44        -7.4995    1.7298   53.0391 H       1  ZINC000426567005    0.4300
     45 H45        -7.8611    0.5158   55.4663 H       1  ZINC000426567005    0.1500
     46 H46        -9.7310   -0.2422   56.8675 H       1  ZINC000426567005    0.1400
     47 H47       -11.8056   -2.8214   55.8999 H       1  ZINC000426567005    0.4100
     48 H48       -12.3527   -2.5450   58.9052 H       1  ZINC000426567005    0.1300
     49 H49       -14.2331   -3.3029   60.3005 H       1  ZINC000426567005    0.1300
     50 H50       -16.4151   -3.7884   59.2709 H       1  ZINC000426567005    0.1200
     51 H51       -16.7231   -3.5193   56.8440 H       1  ZINC000426567005    0.1300
     52 H52       -14.8509   -2.7558   55.4406 H       1  ZINC000426567005    0.1300
     53 H53       -12.2352   -0.4638   53.3892 H       1  ZINC000426567005    0.1300
     54 H54       -10.3603    0.2993   51.9973 H       1  ZINC000426567005    0.1400
@<TRIPOS>BOND
     1     1     2    2
     2     2     3   am
     3     2    14    1
     4     3     4    1
     5     3    32    1
     6     4    13    1
     7     4     5    2
     8     5     6    1
     9     6     7    1
    10     6    33    1
    11     7     8    1
    12     7    13    2
    13     8    12    1
    14     8     9    1
    15     8    34    1
    16     9    10    1
    17     9    35    1
    18     9    36    1
    19    10    11    1
    20    10    37    1
    21    10    38    1
    22    11    12    1
    23    11    39    1
    24    11    40    1
    25    12    41    1
    26    12    42    1
    27    13    43    1
    28    14    15    2
    29    14    16   am
    30    16    17    1
    31    16    44    1
    32    17    31   ar
    33    17    18   ar
    34    18    19   ar
    35    18    45    1
    36    19    20   ar
    37    19    46    1
    38    20    21    1
    39    20    30   ar
    40    21    22    2
    41    21    23   am
    42    23    24    1
    43    23    47    1
    44    24    29   ar
    45    24    25   ar
    46    25    26   ar
    47    25    48    1
    48    26    27   ar
    49    26    49    1
    50    27    28   ar
    51    27    50    1
    52    28    29   ar
    53    28    51    1
    54    29    52    1
    55    30    31   ar
    56    30    53    1
    57    31    54    1
@<TRIPOS>SUBSTRUCTURE
     1 ZINC000426567005        1 TEMP              0 ****  ****    0 ROOT


##########                                Name:    ZINC000912668252
##########                DOCK_Rotatable_Bonds:                  10
##########                         Heavy_Atoms:                  30
##########                    Molecular_Weight:             411.433
##########                DOCK_Rotatable_Bonds:                  10
##########                       Formal_Charge:           0.0199993
##########                     HBond_Acceptors:                   8
##########                        HBond_Donors:                   2
##########                         Heavy_Atoms:                  30
##########                          Grid_Score:          -35.630455
##########                     Grid_vdw_energy:          -35.676865
##########                      Grid_es_energy:            0.046410
##########           Internal_energy_repulsive:           12.564538

@<TRIPOS>MOLECULE
ZINC000912668252
 52 54 1 0 0
SMALL
USER_CHARGES


@<TRIPOS>ATOM
      1 C1        -12.6954    0.6373   55.7952 C.3     1  ZINC000912668252   -0.1700
      2 C2        -12.4434   -0.5472   54.8601 C.3     1  ZINC000912668252    0.1100
      3 N3        -11.8229   -1.6401   55.6129 N.am    1  ZINC000912668252   -0.6100
      4 C4        -12.6550   -2.7046   56.1789 C.3     1  ZINC000912668252    0.1000
      5 C5        -12.8819   -2.4371   57.6682 C.3     1  ZINC000912668252   -0.1800
      6 C6        -10.4863   -1.6662   55.7846 C.2     1  ZINC000912668252    0.5600
      7 O7         -9.9714   -2.5729   56.4092 O.2     1  ZINC000912668252   -0.5300
      8 C8         -9.6464   -0.5918   55.2132 C.ar    1  ZINC000912668252   -0.1100
      9 C9         -9.2266    0.4704   56.0155 C.ar    1  ZINC000912668252   -0.1100
     10 C10        -8.4422    1.4718   55.4798 C.ar    1  ZINC000912668252   -0.1000
     11 C11        -8.0699    1.4273   54.1495 C.ar    1  ZINC000912668252   -0.1200
     12 C12        -8.4828    0.3739   53.3422 C.ar    1  ZINC000912668252    0.1400
     13 N13        -8.1026    0.3334   51.9958 N.am    1  ZINC000912668252   -0.6700
     14 C14        -6.8408   -0.0021   51.6617 C.2     1  ZINC000912668252    0.5200
     15 O15        -6.0347   -0.2688   52.5277 O.2     1  ZINC000912668252   -0.4900
     16 C16        -6.4315   -0.0457   50.2120 C.3     1  ZINC000912668252    0.0500
     17 O17        -6.7657    1.2165   49.5766 O.3     1  ZINC000912668252   -0.3300
     18 C18        -6.1421    2.3188   50.0392 C.2     1  ZINC000912668252    0.5400
     19 O19        -6.7876    3.2124   50.5520 O.2     1  ZINC000912668252   -0.4800
     20 C20        -4.6827    2.4401   49.9238 C.2     1  ZINC000912668252    0.0400
     21 C21        -3.8432    2.8327   50.9185 C.2     1  ZINC000912668252   -0.0900
     22 C22        -2.5254    2.8164   50.4021 C.ar    1  ZINC000912668252   -0.1000
     23 C23        -1.2730    3.1183   50.9528 C.ar    1  ZINC000912668252   -0.0900
     24 C24        -0.1482    3.0052   50.1852 C.ar    1  ZINC000912668252    0.0700
     25 F25         1.0585    3.2969   50.7182 F       1  ZINC000912668252   -0.1400
     26 C26        -0.2349    2.5919   48.8600 C.ar    1  ZINC000912668252   -0.1100
     27 C27        -1.4551    2.2903   48.2975 C.ar    1  ZINC000912668252   -0.1000
     28 C28        -2.6147    2.3981   49.0598 C.ar    1  ZINC000912668252    0.1100
     29 N29        -3.9435    2.1676   48.7886 N.pl3   1  ZINC000912668252   -0.5600
     30 C30        -9.2662   -0.6393   53.8719 C.ar    1  ZINC000912668252   -0.0700
     31 H31       -13.1572    1.4505   55.2351 H       1  ZINC000912668252    0.0700
     32 H32       -13.3603    0.3284   56.6018 H       1  ZINC000912668252    0.0600
     33 H33       -11.7485    0.9770   56.2147 H       1  ZINC000912668252    0.0600
     34 H34       -13.3905   -0.8868   54.4406 H       1  ZINC000912668252    0.0800
     35 H35       -11.7787   -0.2382   54.0534 H       1  ZINC000912668252    0.0900
     36 H36       -13.6151   -2.7282   55.6636 H       1  ZINC000912668252    0.0900
     37 H37       -12.1522   -3.6637   56.0546 H       1  ZINC000912668252    0.0800
     38 H38       -12.0179   -2.7834   58.2353 H       1  ZINC000912668252    0.0600
     39 H39       -13.0170   -1.3675   57.8288 H       1  ZINC000912668252    0.0700
     40 H40       -13.7725   -2.9699   58.0015 H       1  ZINC000912668252    0.0700
     41 H41        -9.5157    0.5088   57.0553 H       1  ZINC000912668252    0.1400
     42 H42        -8.1187    2.2930   56.1020 H       1  ZINC000912668252    0.1400
     43 H43        -7.4564    2.2140   53.7358 H       1  ZINC000912668252    0.1300
     44 H44        -8.7474    0.5468   51.3032 H       1  ZINC000912668252    0.4200
     45 H45        -5.3568   -0.2139   50.1428 H       1  ZINC000912668252    0.1100
     46 H46        -6.9593   -0.8563   49.7097 H       1  ZINC000912668252    0.1100
     47 H47        -4.1304    3.1083   51.9224 H       1  ZINC000912668252    0.1700
     48 H48        -1.1968    3.4399   51.9810 H       1  ZINC000912668252    0.1400
     49 H49         0.6632    2.5072   48.2663 H       1  ZINC000912668252    0.1400
     50 H50        -1.5123    1.9709   47.2675 H       1  ZINC000912668252    0.1400
     51 H51        -4.3025    1.8653   47.9398 H       1  ZINC000912668252    0.4300
     52 H52        -9.5880   -1.4587   53.2462 H       1  ZINC000912668252    0.1400
@<TRIPOS>BOND
     1     1     2    1
     2     1    31    1
     3     1    32    1
     4     1    33    1
     5     2     3    1
     6     2    34    1
     7     2    35    1
     8     3     4    1
     9     3     6   am
    10     4     5    1
    11     4    36    1
    12     4    37    1
    13     5    38    1
    14     5    39    1
    15     5    40    1
    16     6     7    2
    17     6     8    1
    18     8    30   ar
    19     8     9   ar
    20     9    10   ar
    21     9    41    1
    22    10    11   ar
    23    10    42    1
    24    11    12   ar
    25    11    43    1
    26    12    13    1
    27    12    30   ar
    28    13    14   am
    29    13    44    1
    30    14    15    2
    31    14    16    1
    32    16    17    1
    33    16    45    1
    34    16    46    1
    35    17    18    1
    36    18    19    2
    37    18    20    1
    38    20    29    1
    39    20    21    2
    40    21    22    1
    41    21    47    1
    42    22    28   ar
    43    22    23   ar
    44    23    24   ar
    45    23    48    1
    46    24    25    1
    47    24    26   ar
    48    26    27   ar
    49    26    49    1
    50    27    28   ar
    51    27    50    1
    52    28    29    1
    53    29    51    1
    54    30    52    1
@<TRIPOS>SUBSTRUCTURE
     1 ZINC000912668252        1 TEMP              0 ****  ****    0 ROOT


##########                                Name:    ZINC000558213406
##########                DOCK_Rotatable_Bonds:                   8
##########                         Heavy_Atoms:                  30
##########                    Molecular_Weight:               408.5
##########                DOCK_Rotatable_Bonds:                   8
##########                       Formal_Charge:          -0.0299987
##########                     HBond_Acceptors:                   7
##########                        HBond_Donors:                   2
##########                         Heavy_Atoms:                  30
##########                          Grid_Score:          -35.582417
##########                     Grid_vdw_energy:          -34.443607
##########                      Grid_es_energy:           -1.138809
##########           Internal_energy_repulsive:           12.906276

@<TRIPOS>MOLECULE
ZINC000558213406
 58 61 1 0 0
SMALL
USER_CHARGES


@<TRIPOS>ATOM
      1 O1         -8.9909   -0.1971   56.7253 O.2     1  ZINC000558213406   -0.5700
      2 C2         -9.6003    0.8547   56.6953 C.2     1  ZINC000558213406    0.7100
      3 N3         -9.6740    1.5584   55.5482 N.am    1  ZINC000558213406   -0.6800
      4 C4         -9.0435    1.0807   54.3914 C.ar    1  ZINC000558213406    0.1700
      5 C5         -9.7951    0.4902   53.3843 C.ar    1  ZINC000558213406   -0.1300
      6 C6         -9.1734    0.0202   52.2444 C.ar    1  ZINC000558213406   -0.1100
      7 C7         -7.7978    0.1374   52.1056 C.ar    1  ZINC000558213406    0.0600
      8 O8         -7.1862   -0.3259   50.9833 O.3     1  ZINC000558213406   -0.2500
      9 C9         -6.2913    0.4869   50.3626 C.ar    1  ZINC000558213406    0.0700
     10 C10        -6.5842    1.8313   50.1559 C.ar    1  ZINC000558213406   -0.1500
     11 C11        -5.6402    2.6203   49.5184 C.ar    1  ZINC000558213406   -0.1300
     12 C12        -4.4480    2.0510   49.1121 C.ar    1  ZINC000558213406    0.0600
     13 N13        -4.2015    0.7726   49.3230 N.ar    1  ZINC000558213406   -0.4500
     14 C14        -5.0698   -0.0107   49.9309 C.ar    1  ZINC000558213406    0.0800
     15 C15        -7.0465    0.7278   53.1115 C.ar    1  ZINC000558213406   -0.1000
     16 C16        -7.6678    1.2029   54.2495 C.ar    1  ZINC000558213406   -0.1100
     17 N17       -10.2067    1.3141   57.8078 N.am    1  ZINC000558213406   -0.7300
     18 C18       -10.1266    0.5492   59.0548 C.3     1  ZINC000558213406    0.1500
     19 H19       -10.6262   -0.4137   58.9477 H       1  ZINC000558213406    0.1100
     20 C20        -8.6488    0.3558   59.4861 C.3     1  ZINC000558213406   -0.1400
     21 C21        -8.7916    0.1892   61.0196 C.3     1  ZINC000558213406    0.1000
     22 N22        -9.8726    1.1165   61.4008 N.am    1  ZINC000558213406   -0.6200
     23 C23       -10.0481    1.6585   62.6222 C.2     1  ZINC000558213406    0.5400
     24 O24       -10.9766    2.4124   62.8233 O.2     1  ZINC000558213406   -0.5300
     25 C25        -9.0907    1.3279   63.7380 C.3     1  ZINC000558213406   -0.1000
     26 C26        -9.1701    2.4108   64.8158 C.3     1  ZINC000558213406   -0.1100
     27 C27        -8.1981    2.0751   65.9487 C.3     1  ZINC000558213406   -0.1200
     28 C28        -8.5715    0.7218   66.5569 C.3     1  ZINC000558213406   -0.1200
     29 C29        -8.4921   -0.3611   65.4790 C.3     1  ZINC000558213406   -0.1200
     30 C30        -9.4642   -0.0254   64.3462 C.3     1  ZINC000558213406   -0.1100
     31 C31       -10.7311    1.3507   60.2268 C.3     1  ZINC000558213406    0.1000
     32 H32       -10.1635    2.3954   55.5233 H       1  ZINC000558213406    0.4100
     33 H33       -10.8656    0.3983   53.4926 H       1  ZINC000558213406    0.1300
     34 H34        -9.7580   -0.4391   51.4610 H       1  ZINC000558213406    0.1400
     35 H35        -7.5244    2.2494   50.4838 H       1  ZINC000558213406    0.1400
     36 H36        -5.8338    3.6679   49.3410 H       1  ZINC000558213406    0.1400
     37 H37        -3.7085    2.6611   48.6149 H       1  ZINC000558213406    0.1600
     38 H38        -4.8324   -1.0528   50.0861 H       1  ZINC000558213406    0.1700
     39 H39        -5.9757    0.8189   53.0028 H       1  ZINC000558213406    0.1400
     40 H40        -7.0828    1.6628   55.0322 H       1  ZINC000558213406    0.1500
     41 H41       -10.6962    2.1511   57.7828 H       1  ZINC000558213406    0.4000
     42 H42        -8.2238   -0.5402   59.0337 H       1  ZINC000558213406    0.0900
     43 H43        -8.0525    1.2351   59.2425 H       1  ZINC000558213406    0.0800
     44 H44        -9.0671   -0.8362   61.2657 H       1  ZINC000558213406    0.0700
     45 H45        -7.8626    0.4637   61.5191 H       1  ZINC000558213406    0.0800
     46 H46        -8.0755    1.2813   63.3438 H       1  ZINC000558213406    0.0900
     47 H47        -8.9040    3.3750   64.3826 H       1  ZINC000558213406    0.0600
     48 H48       -10.1853    2.4574   65.2100 H       1  ZINC000558213406    0.0700
     49 H49        -7.1829    2.0286   65.5545 H       1  ZINC000558213406    0.0600
     50 H50        -8.2546    2.8465   66.7166 H       1  ZINC000558213406    0.0700
     51 H51        -7.8790    0.4827   67.3639 H       1  ZINC000558213406    0.0600
     52 H52        -9.5867    0.7683   66.9511 H       1  ZINC000558213406    0.0600
     53 H53        -7.4769   -0.4077   65.0848 H       1  ZINC000558213406    0.0600
     54 H54        -8.7581   -1.3253   65.9124 H       1  ZINC000558213406    0.0700
     55 H55       -10.4793    0.0210   64.7403 H       1  ZINC000558213406    0.0800
     56 H56        -9.4076   -0.7969   63.5783 H       1  ZINC000558213406    0.0600
     57 H57       -10.7410    2.4125   59.9806 H       1  ZINC000558213406    0.0800
     58 H58       -11.7444    1.0066   60.4339 H       1  ZINC000558213406    0.0800
@<TRIPOS>BOND
     1     1     2    2
     2     2     3   am
     3     2    17   am
     4     3     4    1
     5     3    32    1
     6     4    16   ar
     7     4     5   ar
     8     5     6   ar
     9     5    33    1
    10     6     7   ar
    11     6    34    1
    12     7     8    1
    13     7    15   ar
    14     8     9    1
    15     9    14   ar
    16     9    10   ar
    17    10    11   ar
    18    10    35    1
    19    11    12   ar
    20    11    36    1
    21    12    13   ar
    22    12    37    1
    23    13    14   ar
    24    14    38    1
    25    15    16   ar
    26    15    39    1
    27    16    40    1
    28    17    18    1
    29    17    41    1
    30    18    19    1
    31    18    31    1
    32    18    20    1
    33    20    21    1
    34    20    42    1
    35    20    43    1
    36    21    22    1
    37    21    44    1
    38    21    45    1
    39    22    23   am
    40    22    31    1
    41    23    24    2
    42    23    25    1
    43    25    30    1
    44    25    26    1
    45    25    46    1
    46    26    27    1
    47    26    47    1
    48    26    48    1
    49    27    28    1
    50    27    49    1
    51    27    50    1
    52    28    29    1
    53    28    51    1
    54    28    52    1
    55    29    30    1
    56    29    53    1
    57    29    54    1
    58    30    55    1
    59    30    56    1
    60    31    57    1
    61    31    58    1
@<TRIPOS>SUBSTRUCTURE
     1 ZINC000558213406        1 TEMP              0 ****  ****    0 ROOT


##########                                Name:    ZINC000512699033
##########                DOCK_Rotatable_Bonds:                   9
##########                         Heavy_Atoms:                  30
##########                    Molecular_Weight:              405.54
##########                DOCK_Rotatable_Bonds:                   9
##########                       Formal_Charge:           0.0199988
##########                     HBond_Acceptors:                   5
##########                        HBond_Donors:                   2
##########                         Heavy_Atoms:                  30
##########                          Grid_Score:          -35.571331
##########                     Grid_vdw_energy:          -33.158344
##########                      Grid_es_energy:           -2.412987
##########           Internal_energy_repulsive:           13.702118

@<TRIPOS>MOLECULE
ZINC000512699033
 61 64 1 0 0
SMALL
USER_CHARGES


@<TRIPOS>ATOM
      1 O1         -1.6274    5.0712   50.4216 O.2     1  ZINC000512699033   -0.5100
      2 C2         -1.2506    4.2181   51.1970 C.2     1  ZINC000512699033    0.5200
      3 C3         -0.9570    4.5793   52.6302 C.3     1  ZINC000512699033   -0.1500
      4 C4          0.5245    4.3356   52.9245 C.3     1  ZINC000512699033    0.1300
      5 N5          0.6844    3.9299   54.3231 N.am    1  ZINC000512699033   -0.7300
      6 C6          0.6285    4.8534   55.3031 C.2     1  ZINC000512699033    0.5200
      7 O7          0.4476    6.0204   55.0272 O.2     1  ZINC000512699033   -0.5300
      8 C8          0.7912    4.4359   56.7421 C.3     1  ZINC000512699033   -0.1100
      9 C9          0.1352    3.0701   56.9540 C.3     1  ZINC000512699033   -0.1100
     10 C10         0.3003    2.6463   58.4149 C.3     1  ZINC000512699033   -0.1200
     11 C11         1.7893    2.5550   58.7543 C.3     1  ZINC000512699033   -0.1200
     12 C12         2.4453    3.9210   58.5423 C.3     1  ZINC000512699033   -0.1200
     13 C13         2.2803    4.3448   57.0814 C.3     1  ZINC000512699033   -0.1000
     14 N14        -1.0998    2.9459   50.7783 N.am    1  ZINC000512699033   -0.6600
     15 C15        -1.3725    2.6105   49.4474 C.ar    1  ZINC000512699033    0.1700
     16 C16        -0.3310    2.3280   48.5736 C.ar    1  ZINC000512699033   -0.1400
     17 C17        -0.6036    1.9967   47.2606 C.ar    1  ZINC000512699033   -0.1000
     18 C18        -1.9118    1.9467   46.8160 C.ar    1  ZINC000512699033   -0.1400
     19 C19        -2.9514    2.2275   47.6838 C.ar    1  ZINC000512699033   -0.0900
     20 C20        -2.6859    2.5538   48.9991 C.ar    1  ZINC000512699033   -0.1200
     21 C21        -3.8193    2.8597   49.9440 C.3     1  ZINC000512699033    0.0900
     22 N22        -4.9794    2.0252   49.6035 N.3     1  ZINC000512699033   -0.4700
     23 C23        -4.7805    0.6311   50.0558 C.3     1  ZINC000512699033    0.0500
     24 C24        -6.2223    0.1676   50.3667 C.3     1  ZINC000512699033   -0.0900
     25 C25        -6.9348    1.4689   50.6768 C.ar    1  ZINC000512699033   -0.1400
     26 C26        -8.1391    1.7273   51.2965 C.ar    1  ZINC000512699033   -0.0800
     27 C27        -8.5672    3.0322   51.4633 C.ar    1  ZINC000512699033   -0.1400
     28 C28        -7.7849    4.0774   51.0078 C.ar    1  ZINC000512699033   -0.0900
     29 C29        -6.5802    3.8242   50.3852 C.ar    1  ZINC000512699033   -0.1400
     30 C30        -6.1435    2.5123   50.2107 C.ar    1  ZINC000512699033    0.0900
     31 H31        -1.1920    5.6308   52.7955 H       1  ZINC000512699033    0.1100
     32 H32        -1.5651    3.9628   53.2923 H       1  ZINC000512699033    0.1000
     33 H33         0.8995    3.5468   52.2723 H       1  ZINC000512699033    0.0800
     34 H34         1.0861    5.2525   52.7456 H       1  ZINC000512699033    0.0800
     35 H35         0.8303    2.9967   54.5437 H       1  ZINC000512699033    0.4000
     36 H36         0.3153    5.1721   57.3899 H       1  ZINC000512699033    0.1000
     37 H37        -0.9257    3.1351   56.7122 H       1  ZINC000512699033    0.0700
     38 H38         0.6111    2.3340   56.3062 H       1  ZINC000512699033    0.0700
     39 H39        -0.1757    3.3823   59.0627 H       1  ZINC000512699033    0.0600
     40 H40        -0.1670    1.6732   58.5659 H       1  ZINC000512699033    0.0700
     41 H41         1.9070    2.2531   59.7950 H       1  ZINC000512699033    0.0600
     42 H42         2.2652    1.8190   58.1063 H       1  ZINC000512699033    0.0600
     43 H43         1.9695    4.6571   59.1901 H       1  ZINC000512699033    0.0600
     44 H44         3.5062    3.8559   58.7841 H       1  ZINC000512699033    0.0700
     45 H45         2.7561    3.6086   56.4335 H       1  ZINC000512699033    0.0700
     46 H46         2.7476    5.3178   56.9304 H       1  ZINC000512699033    0.0700
     47 H47        -0.8024    2.2629   51.3994 H       1  ZINC000512699033    0.4200
     48 H48         0.6911    2.3675   48.9202 H       1  ZINC000512699033    0.1500
     49 H49         0.2061    1.7769   46.5806 H       1  ZINC000512699033    0.1300
     50 H50        -2.1223    1.6881   45.7888 H       1  ZINC000512699033    0.1200
     51 H51        -3.9723    2.1876   47.3336 H       1  ZINC000512699033    0.1200
     52 H52        -3.5070    2.6479   50.9666 H       1  ZINC000512699033    0.0600
     53 H53        -4.0906    3.9118   49.8575 H       1  ZINC000512699033    0.0900
     54 H54        -4.3424    0.0259   49.2622 H       1  ZINC000512699033    0.1000
     55 H55        -4.1625    0.6001   50.9532 H       1  ZINC000512699033    0.0600
     56 H56        -6.6671   -0.3186   49.4984 H       1  ZINC000512699033    0.0900
     57 H57        -6.2364   -0.4959   51.2314 H       1  ZINC000512699033    0.0800
     58 H58        -8.7491    0.9100   51.6518 H       1  ZINC000512699033    0.1200
     59 H59        -9.5109    3.2342   51.9480 H       1  ZINC000512699033    0.1300
     60 H60        -8.1186    5.0960   51.1397 H       1  ZINC000512699033    0.1300
     61 H61        -5.9740    4.6450   50.0314 H       1  ZINC000512699033    0.1200
@<TRIPOS>BOND
     1     1     2    2
     2     2     3    1
     3     2    14   am
     4     3     4    1
     5     3    31    1
     6     3    32    1
     7     4     5    1
     8     4    33    1
     9     4    34    1
    10     5     6   am
    11     5    35    1
    12     6     7    2
    13     6     8    1
    14     8    13    1
    15     8     9    1
    16     8    36    1
    17     9    10    1
    18     9    37    1
    19     9    38    1
    20    10    11    1
    21    10    39    1
    22    10    40    1
    23    11    12    1
    24    11    41    1
    25    11    42    1
    26    12    13    1
    27    12    43    1
    28    12    44    1
    29    13    45    1
    30    13    46    1
    31    14    15    1
    32    14    47    1
    33    15    20   ar
    34    15    16   ar
    35    16    17   ar
    36    16    48    1
    37    17    18   ar
    38    17    49    1
    39    18    19   ar
    40    18    50    1
    41    19    20   ar
    42    19    51    1
    43    20    21    1
    44    21    22    1
    45    21    52    1
    46    21    53    1
    47    22    30    1
    48    22    23    1
    49    23    24    1
    50    23    54    1
    51    23    55    1
    52    24    25    1
    53    24    56    1
    54    24    57    1
    55    25    30   ar
    56    25    26   ar
    57    26    27   ar
    58    26    58    1
    59    27    28   ar
    60    27    59    1
    61    28    29   ar
    62    28    60    1
    63    29    30   ar
    64    29    61    1
@<TRIPOS>SUBSTRUCTURE
     1 ZINC000512699033        1 TEMP              0 ****  ****    0 ROOT


##########                                Name:    ZINC000298969660
##########                DOCK_Rotatable_Bonds:                  10
##########                         Heavy_Atoms:                  29
##########                    Molecular_Weight:             397.474
##########                DOCK_Rotatable_Bonds:                  10
##########                       Formal_Charge:          -0.0100008
##########                     HBond_Acceptors:                   7
##########                        HBond_Donors:                   2
##########                         Heavy_Atoms:                  29
##########                          Grid_Score:          -35.555862
##########                     Grid_vdw_energy:          -36.264408
##########                      Grid_es_energy:            0.708545
##########           Internal_energy_repulsive:           11.269442

@<TRIPOS>MOLECULE
ZINC000298969660
 56 58 1 0 0
SMALL
USER_CHARGES


@<TRIPOS>ATOM
      1 C1         -0.6157    2.4065   47.2153 C.3     1  ZINC000298969660    0.0800
      2 N2         -0.8154    3.0002   48.5396 N.am    1  ZINC000298969660   -0.6300
      3 C3          0.2873    3.7016   49.2016 C.3     1  ZINC000298969660    0.1400
      4 C4          1.0276    2.7318   50.1247 C.3     1  ZINC000298969660    0.0700
      5 H5          0.4856    2.6406   51.0659 H       1  ZINC000298969660    0.0500
      6 C6          2.4378    3.2619   50.3968 C.3     1  ZINC000298969660   -0.1500
      7 C7          3.1927    2.2567   51.2721 C.3     1  ZINC000298969660   -0.1200
      8 C8          3.2088    0.8957   50.5694 C.3     1  ZINC000298969660   -0.1600
      9 C9          1.7688    0.4570   50.2905 C.3     1  ZINC000298969660    0.0600
     10 O10         1.1143    1.4501   49.4985 O.3     1  ZINC000298969660   -0.3600
     11 C11        -2.0135    2.9013   49.1488 C.2     1  ZINC000298969660    0.7100
     12 O12        -2.1797    3.3954   50.2472 O.2     1  ZINC000298969660   -0.5400
     13 N13        -3.0275    2.2545   48.5404 N.am    1  ZINC000298969660   -0.6900
     14 C14        -4.2715    2.1518   49.1729 C.ar    1  ZINC000298969660    0.2000
     15 C15        -5.0657    3.2799   49.3325 C.ar    1  ZINC000298969660   -0.1800
     16 C16        -6.2937    3.1786   49.9576 C.ar    1  ZINC000298969660   -0.0600
     17 C17        -6.7350    1.9556   50.4249 C.ar    1  ZINC000298969660   -0.2300
     18 C18        -5.9455    0.8247   50.2682 C.ar    1  ZINC000298969660    0.1500
     19 O19        -6.3807   -0.3775   50.7288 O.3     1  ZINC000298969660   -0.2900
     20 C20        -6.6281   -0.4837   52.1322 C.3     1  ZINC000298969660    0.0400
     21 C21        -8.1080   -0.3668   52.3917 C.2     1  ZINC000298969660    0.5100
     22 O22        -8.8997   -0.5956   51.5017 O.2     1  ZINC000298969660   -0.4900
     23 N23        -8.5517   -0.0080   53.6126 N.am    1  ZINC000298969660   -0.6700
     24 C24        -9.9259    0.1006   53.8536 C.ar    1  ZINC000298969660    0.1400
     25 C25       -10.5354   -0.7237   54.7904 C.ar    1  ZINC000298969660   -0.1400
     26 C26       -11.8918   -0.6141   55.0258 C.ar    1  ZINC000298969660   -0.1000
     27 C27       -12.6431    0.3148   54.3296 C.ar    1  ZINC000298969660   -0.1300
     28 C28       -12.0393    1.1368   53.3957 C.ar    1  ZINC000298969660   -0.1000
     29 C29       -10.6820    1.0367   53.1604 C.ar    1  ZINC000298969660   -0.1200
     30 C30        -4.7157    0.9214   49.6367 C.ar    1  ZINC000298969660   -0.1500
     31 H31        -0.2700    1.3787   47.3263 H       1  ZINC000298969660    0.0600
     32 H32        -1.5579    2.4156   46.6672 H       1  ZINC000298969660    0.0700
     33 H33         0.1292    2.9831   46.6671 H       1  ZINC000298969660    0.0800
     34 H34         0.9769    4.0858   48.4498 H       1  ZINC000298969660    0.1000
     35 H35        -0.1092    4.5304   49.7881 H       1  ZINC000298969660    0.0900
     36 H36         2.9667    3.3919   49.4526 H       1  ZINC000298969660    0.0800
     37 H37         2.3736    4.2191   50.9142 H       1  ZINC000298969660    0.0700
     38 H38         4.2158    2.6010   51.4234 H       1  ZINC000298969660    0.0700
     39 H39         2.6916    2.1636   52.2356 H       1  ZINC000298969660    0.0600
     40 H40         3.7532    0.9778   49.6286 H       1  ZINC000298969660    0.0700
     41 H41         3.6959    0.1606   51.2101 H       1  ZINC000298969660    0.0700
     42 H42         1.7753   -0.4909   49.7524 H       1  ZINC000298969660    0.0900
     43 H43         1.2366    0.3358   51.2341 H       1  ZINC000298969660    0.0400
     44 H44        -2.8949    1.8603   47.6641 H       1  ZINC000298969660    0.4100
     45 H45        -4.7229    4.2371   48.9681 H       1  ZINC000298969660    0.1300
     46 H46        -6.9096    4.0570   50.0814 H       1  ZINC000298969660    0.1300
     47 H47        -7.6954    1.8794   50.9131 H       1  ZINC000298969660    0.1300
     48 H48        -6.2712   -1.4487   52.4920 H       1  ZINC000298969660    0.1000
     49 H49        -6.1033    0.3158   52.6551 H       1  ZINC000298969660    0.1000
     50 H50        -7.9187    0.1750   54.3243 H       1  ZINC000298969660    0.4100
     51 H51        -9.9492   -1.4499   55.3340 H       1  ZINC000298969660    0.1300
     52 H52       -12.3663   -1.2548   55.7543 H       1  ZINC000298969660    0.1300
     53 H53       -13.7037    0.3983   54.5153 H       1  ZINC000298969660    0.1200
     54 H54       -12.6289    1.8608   52.8531 H       1  ZINC000298969660    0.1300
     55 H55       -10.2110    1.6789   52.4310 H       1  ZINC000298969660    0.1300
     56 H56        -4.1001    0.0426   49.5139 H       1  ZINC000298969660    0.1500
@<TRIPOS>BOND
     1     1     2    1
     2     1    31    1
     3     1    32    1
     4     1    33    1
     5     2     3    1
     6     2    11   am
     7     3     4    1
     8     3    34    1
     9     3    35    1
    10     4     5    1
    11     4    10    1
    12     4     6    1
    13     6     7    1
    14     6    36    1
    15     6    37    1
    16     7     8    1
    17     7    38    1
    18     7    39    1
    19     8     9    1
    20     8    40    1
    21     8    41    1
    22     9    10    1
    23     9    42    1
    24     9    43    1
    25    11    12    2
    26    11    13   am
    27    13    14    1
    28    13    44    1
    29    14    30   ar
    30    14    15   ar
    31    15    16   ar
    32    15    45    1
    33    16    17   ar
    34    16    46    1
    35    17    18   ar
    36    17    47    1
    37    18    19    1
    38    18    30   ar
    39    19    20    1
    40    20    21    1
    41    20    48    1
    42    20    49    1
    43    21    22    2
    44    21    23   am
    45    23    24    1
    46    23    50    1
    47    24    29   ar
    48    24    25   ar
    49    25    26   ar
    50    25    51    1
    51    26    27   ar
    52    26    52    1
    53    27    28   ar
    54    27    53    1
    55    28    29   ar
    56    28    54    1
    57    29    55    1
    58    30    56    1
@<TRIPOS>SUBSTRUCTURE
     1 ZINC000298969660        1 TEMP              0 ****  ****    0 ROOT


##########                                Name:    ZINC001461256440
##########                DOCK_Rotatable_Bonds:                  13
##########                         Heavy_Atoms:                  26
##########                    Molecular_Weight:             367.445
##########                DOCK_Rotatable_Bonds:                  13
##########                       Formal_Charge:        -6.37025e-07
##########                     HBond_Acceptors:                   8
##########                        HBond_Donors:                   1
##########                         Heavy_Atoms:                  26
##########                          Grid_Score:          -35.553947
##########                     Grid_vdw_energy:          -32.447453
##########                      Grid_es_energy:           -3.106493
##########           Internal_energy_repulsive:           17.167217

@<TRIPOS>MOLECULE
ZINC001461256440
 55 55 1 0 0
SMALL
USER_CHARGES


@<TRIPOS>ATOM
      1 C1         -7.7966    0.0766   52.5984 C.3     1  ZINC001461256440   -0.1500
      2 C2         -6.7100   -0.0649   51.5305 C.3     1  ZINC001461256440    0.0600
      3 O3         -6.3036    1.2529   51.0760 O.3     1  ZINC001461256440   -0.3600
      4 C4         -5.5485    1.3093   49.9678 C.2     1  ZINC001461256440    0.4400
      5 O5         -5.2575    0.2930   49.3827 O.2     1  ZINC001461256440   -0.4800
      6 C6         -5.0634    2.6401   49.4534 C.3     1  ZINC001461256440    0.1400
      7 N7         -3.6400    2.5455   49.1201 N.pl3   1  ZINC001461256440   -0.3800
      8 N8         -3.1069    2.1528   47.8858 N.2     1  ZINC001461256440   -0.2800
      9 C9         -1.8016    2.1917   47.9692 C.2     1  ZINC001461256440    0.1000
     10 C10        -0.8362    1.8458   46.8649 C.3     1  ZINC001461256440   -0.0700
     11 C11        -1.4559    2.6098   49.2571 C.2     1  ZINC001461256440   -0.2700
     12 C12        -2.6082    2.8274   49.9480 C.2     1  ZINC001461256440    0.3100
     13 N13        -2.7070    3.2552   51.2719 N.am    1  ZINC001461256440   -0.6500
     14 C14        -2.1563    4.4276   51.6441 C.2     1  ZINC001461256440    0.5200
     15 O15        -1.5759    5.1113   50.8276 O.2     1  ZINC001461256440   -0.5000
     16 C16        -2.2615    4.8889   53.0749 C.3     1  ZINC001461256440   -0.1300
     17 C17        -1.2361    4.1406   53.9288 C.3     1  ZINC001461256440   -0.1100
     18 C18        -1.6585    4.1959   55.3983 C.3     1  ZINC001461256440   -0.1100
     19 C19        -0.6034    3.4979   56.2589 C.3     1  ZINC001461256440   -0.1200
     20 C20         0.5340    4.4488   56.5287 C.2     1  ZINC001461256440    0.4600
     21 O21         0.4059    5.6267   56.2920 O.2     1  ZINC001461256440   -0.5000
     22 O22         1.6896    3.9873   57.0321 O.3     1  ZINC001461256440   -0.3500
     23 C23         1.7460    3.7772   58.4678 C.3     1  ZINC001461256440    0.1200
     24 C24         3.1775    4.0000   58.9599 C.3     1  ZINC001461256440   -0.1800
     25 C25         0.8076    4.7643   59.1649 C.3     1  ZINC001461256440   -0.1400
     26 C26         1.3124    2.3461   58.7913 C.3     1  ZINC001461256440   -0.1800
     27 H27        -8.1018   -0.9127   52.9395 H       1  ZINC001461256440    0.0800
     28 H28        -7.4059    0.6470   53.4409 H       1  ZINC001461256440    0.0700
     29 H29        -8.6564    0.5962   52.1753 H       1  ZINC001461256440    0.0700
     30 H30        -5.8503   -0.5845   51.9536 H       1  ZINC001461256440    0.0700
     31 H31        -7.1008   -0.6353   50.6879 H       1  ZINC001461256440    0.0700
     32 H32        -5.6281    2.9127   48.5618 H       1  ZINC001461256440    0.1300
     33 H33        -5.2070    3.4006   50.2209 H       1  ZINC001461256440    0.1400
     34 H34        -0.6129    2.7406   46.2840 H       1  ZINC001461256440    0.0800
     35 H35         0.0846    1.4539   47.2969 H       1  ZINC001461256440    0.0800
     36 H36        -1.2821    1.0926   46.2152 H       1  ZINC001461256440    0.0700
     37 H37        -0.4528    2.7404   49.6358 H       1  ZINC001461256440    0.1800
     38 H38        -3.1723    2.7089   51.9245 H       1  ZINC001461256440    0.4100
     39 H39        -2.0653    5.9599   53.1267 H       1  ZINC001461256440    0.1000
     40 H40        -3.2646    4.6850   53.4496 H       1  ZINC001461256440    0.1000
     41 H41        -1.1828    3.1012   53.6049 H       1  ZINC001461256440    0.0800
     42 H42        -0.2579    4.6075   53.8142 H       1  ZINC001461256440    0.0800
     43 H43        -1.7521    5.2359   55.7106 H       1  ZINC001461256440    0.0700
     44 H44        -2.6176    3.6924   55.5199 H       1  ZINC001461256440    0.0700
     45 H45        -1.0512    3.1895   57.2036 H       1  ZINC001461256440    0.1100
     46 H46        -0.2269    2.6211   55.7320 H       1  ZINC001461256440    0.1100
     47 H47         3.4863    5.0196   58.7294 H       1  ZINC001461256440    0.0600
     48 H48         3.2198    3.8424   60.0377 H       1  ZINC001461256440    0.0700
     49 H49         3.8461    3.2969   58.4633 H       1  ZINC001461256440    0.0800
     50 H50        -0.2122    4.6056   58.8142 H       1  ZINC001461256440    0.0700
     51 H51         0.8500    4.6066   60.2425 H       1  ZINC001461256440    0.0800
     52 H52         1.1165    5.7839   58.9344 H       1  ZINC001461256440    0.0700
     53 H53         1.9811    1.6429   58.2946 H       1  ZINC001461256440    0.0800
     54 H54         1.3548    2.1884   59.8689 H       1  ZINC001461256440    0.0700
     55 H55         0.2927    2.1873   58.4406 H       1  ZINC001461256440    0.0600
@<TRIPOS>BOND
     1     1     2    1
     2     1    27    1
     3     1    28    1
     4     1    29    1
     5     2     3    1
     6     2    30    1
     7     2    31    1
     8     3     4    1
     9     4     5    2
    10     4     6    1
    11     6     7    1
    12     6    32    1
    13     6    33    1
    14     7    12    1
    15     7     8    1
    16     8     9    2
    17     9    10    1
    18     9    11    1
    19    10    34    1
    20    10    35    1
    21    10    36    1
    22    11    12    2
    23    11    37    1
    24    12    13    1
    25    13    14   am
    26    13    38    1
    27    14    15    2
    28    14    16    1
    29    16    17    1
    30    16    39    1
    31    16    40    1
    32    17    18    1
    33    17    41    1
    34    17    42    1
    35    18    19    1
    36    18    43    1
    37    18    44    1
    38    19    20    1
    39    19    45    1
    40    19    46    1
    41    20    21    2
    42    20    22    1
    43    22    23    1
    44    23    24    1
    45    23    25    1
    46    23    26    1
    47    24    47    1
    48    24    48    1
    49    24    49    1
    50    25    50    1
    51    25    51    1
    52    25    52    1
    53    26    53    1
    54    26    54    1
    55    26    55    1
@<TRIPOS>SUBSTRUCTURE
     1 ZINC001461256440        1 TEMP              0 ****  ****    0 ROOT


##########                                Name:    ZINC000992031068
##########                DOCK_Rotatable_Bonds:                   8
##########                         Heavy_Atoms:                  25
##########                    Molecular_Weight:             342.401
##########                DOCK_Rotatable_Bonds:                   8
##########                       Formal_Charge:           0.0199999
##########                     HBond_Acceptors:                   8
##########                        HBond_Donors:                   2
##########                         Heavy_Atoms:                  25
##########                          Grid_Score:          -35.523621
##########                     Grid_vdw_energy:          -34.686687
##########                      Grid_es_energy:           -0.836932
##########           Internal_energy_repulsive:            6.256623

@<TRIPOS>MOLECULE
ZINC000992031068
 47 49 1 0 0
SMALL
USER_CHARGES


@<TRIPOS>ATOM
      1 C1          0.1621    3.9581   50.2054 C.3     1  ZINC000992031068   -0.1100
      2 C2         -0.8104    3.2110   49.3294 C.ar    1  ZINC000992031068    0.1800
      3 C3         -2.1198    3.0125   49.7434 C.ar    1  ZINC000992031068   -0.1700
      4 C4         -2.9820    2.3151   48.8966 C.ar    1  ZINC000992031068    0.1300
      5 C5         -4.3934    2.0742   49.2886 C.2     1  ZINC000992031068    0.5700
      6 O6         -5.1671    3.0067   49.3761 O.2     1  ZINC000992031068   -0.5200
      7 N7         -4.8166    0.8211   49.5476 N.am    1  ZINC000992031068   -0.7100
      8 C8         -6.2098    0.5832   49.9328 C.3     1  ZINC000992031068    0.1300
      9 C9         -6.3413    0.6755   51.4542 C.3     1  ZINC000992031068   -0.1200
     10 C10        -7.5873    1.4478   51.9192 C.3     1  ZINC000992031068   -0.1400
     11 C11        -7.7361    0.3872   53.0228 C.3     1  ZINC000992031068    0.1200
     12 N12        -9.1237   -0.0140   53.2678 N.am    1  ZINC000992031068   -0.7200
     13 C13        -9.9000    0.7147   54.0941 C.2     1  ZINC000992031068    0.5200
     14 O14        -9.4504    1.7034   54.6336 O.2     1  ZINC000992031068   -0.5200
     15 C15       -11.3267    0.3010   54.3475 C.3     1  ZINC000992031068   -0.0800
     16 C16       -11.3497   -0.8641   55.3030 C.2     1  ZINC000992031068    0.1000
     17 C17       -10.3559   -1.2219   56.1488 C.2     1  ZINC000992031068   -0.2500
     18 C18       -10.7785   -2.3525   56.8557 C.2     1  ZINC000992031068    0.0500
     19 N19       -11.9829   -2.6622   56.4490 N.2     1  ZINC000992031068   -0.2900
     20 N20       -12.3674   -1.7340   55.4727 N.pl3   1  ZINC000992031068   -0.3700
     21 C21       -13.6449   -1.7164   54.7559 C.3     1  ZINC000992031068    0.1000
     22 C22        -6.9722   -0.5721   52.0948 C.3     1  ZINC000992031068   -0.1400
     23 N23        -2.5183    1.8698   47.7314 N.ar    1  ZINC000992031068   -0.5000
     24 C24        -1.2680    2.0816   47.3800 C.ar    1  ZINC000992031068    0.3000
     25 N25        -0.4284    2.7411   48.1543 N.ar    1  ZINC000992031068   -0.5100
     26 H26         0.1176    5.0220   49.9724 H       1  ZINC000992031068    0.0900
     27 H27        -0.0995    3.8042   51.2522 H       1  ZINC000992031068    0.0900
     28 H28         1.1716    3.5886   50.0249 H       1  ZINC000992031068    0.0900
     29 H29        -2.4625    3.3877   50.6964 H       1  ZINC000992031068    0.1600
     30 H30        -4.1985    0.0766   49.4789 H       1  ZINC000992031068    0.4100
     31 H31        -6.8488    1.3333   49.4666 H       1  ZINC000992031068    0.0700
     32 H32        -6.5140   -0.4097   49.6013 H       1  ZINC000992031068    0.0800
     33 H33        -5.4201    0.9973   51.9399 H       1  ZINC000992031068    0.1000
     34 H34        -7.3662    2.4452   52.2991 H       1  ZINC000992031068    0.0800
     35 H35        -8.4011    1.4407   51.1941 H       1  ZINC000992031068    0.0900
     36 H36        -7.1983    0.6317   53.9387 H       1  ZINC000992031068    0.1200
     37 H37        -9.4837   -0.8041   52.8353 H       1  ZINC000992031068    0.4000
     38 H38       -11.8761    1.1369   54.7805 H       1  ZINC000992031068    0.1200
     39 H39       -11.7927    0.0084   53.4065 H       1  ZINC000992031068    0.1100
     40 H40        -9.4043   -0.7231   56.2583 H       1  ZINC000992031068    0.1500
     41 H41       -10.2088   -2.8791   57.6071 H       1  ZINC000992031068    0.1800
     42 H42       -14.3632   -1.1107   55.3084 H       1  ZINC000992031068    0.0800
     43 H43       -13.4986   -1.2910   53.7630 H       1  ZINC000992031068    0.0800
     44 H44       -14.0234   -2.7343   54.6629 H       1  ZINC000992031068    0.0900
     45 H45        -7.6179   -1.1314   51.4178 H       1  ZINC000992031068    0.0900
     46 H46        -6.2546   -1.2052   52.6166 H       1  ZINC000992031068    0.0800
     47 H47        -0.9206    1.7081   46.4282 H       1  ZINC000992031068    0.2100
@<TRIPOS>BOND
     1     1     2    1
     2     1    26    1
     3     1    27    1
     4     1    28    1
     5     2    25   ar
     6     2     3   ar
     7     3     4   ar
     8     3    29    1
     9     4     5    1
    10     4    23   ar
    11     5     6    2
    12     5     7   am
    13     7     8    1
    14     7    30    1
    15     8     9    1
    16     8    31    1
    17     8    32    1
    18     9    22    1
    19     9    10    1
    20     9    33    1
    21    10    11    1
    22    10    34    1
    23    10    35    1
    24    11    12    1
    25    11    22    1
    26    11    36    1
    27    12    13   am
    28    12    37    1
    29    13    14    2
    30    13    15    1
    31    15    16    1
    32    15    38    1
    33    15    39    1
    34    16    20    1
    35    16    17    2
    36    17    18    1
    37    17    40    1
    38    18    19    2
    39    18    41    1
    40    19    20    1
    41    20    21    1
    42    21    42    1
    43    21    43    1
    44    21    44    1
    45    22    45    1
    46    22    46    1
    47    23    24   ar
    48    24    25   ar
    49    24    47    1
@<TRIPOS>SUBSTRUCTURE
     1 ZINC000992031068        1 TEMP              0 ****  ****    0 ROOT


##########                                Name:    ZINC000428748914
##########                DOCK_Rotatable_Bonds:                  11
##########                         Heavy_Atoms:                  30
##########                    Molecular_Weight:             413.492
##########                DOCK_Rotatable_Bonds:                  11
##########                       Formal_Charge:           0.0199993
##########                     HBond_Acceptors:                   7
##########                        HBond_Donors:                   3
##########                         Heavy_Atoms:                  30
##########                          Grid_Score:          -35.508640
##########                     Grid_vdw_energy:          -34.783951
##########                      Grid_es_energy:           -0.724688
##########           Internal_energy_repulsive:           14.238596

@<TRIPOS>MOLECULE
ZINC000428748914
 58 61 1 0 0
SMALL
USER_CHARGES


@<TRIPOS>ATOM
      1 O1         -8.5207   -0.3147   51.7544 O.2     1  ZINC000428748914   -0.5900
      2 C2         -8.5490    0.7532   52.3351 C.2     1  ZINC000428748914    0.7000
      3 N3         -9.2257    0.8721   53.4946 N.am    1  ZINC000428748914   -0.7400
      4 C4         -9.9321   -0.2839   54.0522 C.3     1  ZINC000428748914    0.1900
      5 C5        -10.1658   -0.0673   55.5251 C.ar    1  ZINC000428748914   -0.2000
      6 C6        -11.4285   -0.2542   56.0699 C.ar    1  ZINC000428748914   -0.0200
      7 C7        -11.5995   -0.0445   57.4273 C.ar    1  ZINC000428748914   -0.1900
      8 C8        -10.5084    0.3436   58.1939 C.ar    1  ZINC000428748914    0.3300
      9 O9        -10.6628    0.5518   59.5257 O.3     1  ZINC000428748914   -0.3000
     10 C10        -9.4860    0.8626   60.2744 C.3     1  ZINC000428748914    0.0800
     11 C11        -9.8621    1.4844   61.6422 C.3     1  ZINC000428748914   -0.1400
     12 C12        -8.6120    1.1887   62.5075 C.3     1  ZINC000428748914   -0.1200
     13 C13        -8.1680   -0.2199   62.0618 C.3     1  ZINC000428748914   -0.1200
     14 C14        -8.7237   -0.4272   60.6419 C.3     1  ZINC000428748914   -0.1200
     15 N15        -9.3198    0.5116   57.6380 N.ar    1  ZINC000428748914   -0.5400
     16 C16        -9.1246    0.3138   56.3483 C.ar    1  ZINC000428748914    0.1600
     17 N17        -7.8991    1.8167   51.8221 N.am    1  ZINC000428748914   -0.7400
     18 C18        -7.1635    1.6875   50.5617 C.3     1  ZINC000428748914    0.1800
     19 C19        -5.6844    1.9979   50.8005 C.3     1  ZINC000428748914   -0.1300
     20 C20        -4.7782    0.7810   50.9977 C.3     1  ZINC000428748914    0.1100
     21 O21        -4.8432   -0.0540   49.8397 O.3     1  ZINC000428748914   -0.5700
     22 C22        -5.3468    3.2657   51.5877 C.3     1  ZINC000428748914   -0.1400
     23 C23        -5.0919    3.2106   50.0800 C.3     1  ZINC000428748914   -0.1000
     24 H24        -5.7557    3.7873   49.4360 H       1  ZINC000428748914    0.1200
     25 C25        -3.6601    3.1158   49.6195 C.ar    1  ZINC000428748914   -0.0700
     26 C26        -2.6733    3.8220   50.2818 C.ar    1  ZINC000428748914   -0.0900
     27 C27        -1.3600    3.7359   49.8604 C.ar    1  ZINC000428748914   -0.1500
     28 C28        -1.0326    2.9415   48.7746 C.ar    1  ZINC000428748914    0.1000
     29 F29         0.2510    2.8562   48.3620 F       1  ZINC000428748914   -0.1400
     30 C30        -2.0217    2.2343   48.1123 C.ar    1  ZINC000428748914   -0.1500
     31 C31        -3.3336    2.3183   48.5385 C.ar    1  ZINC000428748914   -0.0800
     32 H32        -9.2450    1.7230   53.9599 H       1  ZINC000428748914    0.4000
     33 H33       -10.8901   -0.4031   53.5460 H       1  ZINC000428748914    0.0800
     34 H34        -9.3308   -1.1815   53.9078 H       1  ZINC000428748914    0.0800
     35 H35       -12.2589   -0.5561   55.4488 H       1  ZINC000428748914    0.1400
     36 H36       -12.5686   -0.1805   57.8844 H       1  ZINC000428748914    0.1400
     37 H37        -8.8430    1.5380   59.7099 H       1  ZINC000428748914    0.1000
     38 H38       -10.0212    2.5586   61.5476 H       1  ZINC000428748914    0.0700
     39 H39       -10.7440    0.9974   62.0585 H       1  ZINC000428748914    0.0800
     40 H40        -7.8273    1.9177   62.3058 H       1  ZINC000428748914    0.0700
     41 H41        -8.8719    1.1896   63.5661 H       1  ZINC000428748914    0.0700
     42 H42        -7.0799   -0.2820   62.0497 H       1  ZINC000428748914    0.0700
     43 H43        -8.5777   -0.9715   62.7366 H       1  ZINC000428748914    0.0700
     44 H44        -9.4031   -1.2794   60.6277 H       1  ZINC000428748914    0.0800
     45 H45        -7.9051   -0.5899   59.9407 H       1  ZINC000428748914    0.0700
     46 H46        -8.1400    0.4604   55.9294 H       1  ZINC000428748914    0.1600
     47 H47        -7.9184    2.6676   52.2874 H       1  ZINC000428748914    0.3900
     48 H48        -7.2650    0.6701   50.1845 H       1  ZINC000428748914    0.0700
     49 H49        -7.5685    2.3880   49.8313 H       1  ZINC000428748914    0.0900
     50 H50        -3.7512    1.1135   51.1487 H       1  ZINC000428748914    0.0500
     51 H51        -5.1100    0.2185   51.8703 H       1  ZINC000428748914    0.0600
     52 H52        -4.2756   -0.8355   49.8861 H       1  ZINC000428748914    0.3800
     53 H53        -6.1784    3.8786   51.9354 H       1  ZINC000428748914    0.1100
     54 H54        -4.4790    3.2330   52.2464 H       1  ZINC000428748914    0.1100
     55 H55        -2.9289    4.4416   51.1287 H       1  ZINC000428748914    0.1400
     56 H56        -0.5894    4.2882   50.3775 H       1  ZINC000428748914    0.1400
     57 H57        -1.7675    1.6147   47.2650 H       1  ZINC000428748914    0.1400
     58 H58        -4.1052    1.7665   48.0222 H       1  ZINC000428748914    0.1300
@<TRIPOS>BOND
     1     1     2    2
     2     2     3   am
     3     2    17   am
     4     3     4    1
     5     3    32    1
     6     4     5    1
     7     4    33    1
     8     4    34    1
     9     5    16   ar
    10     5     6   ar
    11     6     7   ar
    12     6    35    1
    13     7     8   ar
    14     7    36    1
    15     8     9    1
    16     8    15   ar
    17     9    10    1
    18    10    14    1
    19    10    11    1
    20    10    37    1
    21    11    12    1
    22    11    38    1
    23    11    39    1
    24    12    13    1
    25    12    40    1
    26    12    41    1
    27    13    14    1
    28    13    42    1
    29    13    43    1
    30    14    44    1
    31    14    45    1
    32    15    16   ar
    33    16    46    1
    34    17    18    1
    35    17    47    1
    36    18    19    1
    37    18    48    1
    38    18    49    1
    39    19    23    1
    40    19    20    1
    41    19    22    1
    42    20    21    1
    43    20    50    1
    44    20    51    1
    45    21    52    1
    46    22    23    1
    47    22    53    1
    48    22    54    1
    49    23    24    1
    50    23    25    1
    51    25    31   ar
    52    25    26   ar
    53    26    27   ar
    54    26    55    1
    55    27    28   ar
    56    27    56    1
    57    28    29    1
    58    28    30   ar
    59    30    31   ar
    60    30    57    1
    61    31    58    1
@<TRIPOS>SUBSTRUCTURE
     1 ZINC000428748914        1 TEMP              0 ****  ****    0 ROOT


##########                                Name:    ZINC001083519372
##########                DOCK_Rotatable_Bonds:                   7
##########                         Heavy_Atoms:                  27
##########                    Molecular_Weight:             370.411
##########                DOCK_Rotatable_Bonds:                   7
##########                       Formal_Charge:           0.0399996
##########                     HBond_Acceptors:                   9
##########                        HBond_Donors:                   2
##########                         Heavy_Atoms:                  27
##########                          Grid_Score:          -35.492393
##########                     Grid_vdw_energy:          -33.203583
##########                      Grid_es_energy:           -2.288812
##########           Internal_energy_repulsive:            8.188375

@<TRIPOS>MOLECULE
ZINC001083519372
 49 52 1 0 0
SMALL
USER_CHARGES


@<TRIPOS>ATOM
      1 C1        -11.8303   -1.6305   58.0517 C.3     1  ZINC001083519372   -0.1500
      2 C2        -10.8724   -1.4984   56.8660 C.3     1  ZINC001083519372   -0.0100
      3 C3        -10.3206   -2.8777   56.5001 C.3     1  ZINC001083519372   -0.1500
      4 C4        -11.6112   -0.9234   55.6850 C.2     1  ZINC001083519372   -0.0100
      5 C5        -11.1322   -0.0330   54.8007 C.2     1  ZINC001083519372   -0.0100
      6 C6         -9.7533    0.5751   54.8090 C.3     1  ZINC001083519372    0.1300
      7 N7         -9.2934    0.7645   53.4268 N.3     1  ZINC001083519372   -0.5000
      8 C8         -8.1349    1.6926   53.3738 C.3     1  ZINC001083519372    0.0300
      9 C9         -7.4809    1.3656   52.0080 C.3     1  ZINC001083519372    0.1500
     10 H10        -8.0082    1.8687   51.1974 H       1  ZINC001083519372    0.1200
     11 N11        -6.0634    1.7358   52.0101 N.am    1  ZINC001083519372   -0.6900
     12 C12        -5.4596    2.0972   50.8607 C.2     1  ZINC001083519372    0.5600
     13 O13        -6.0916    2.1175   49.8221 O.2     1  ZINC001083519372   -0.5100
     14 C14        -4.0319    2.4682   50.8625 C.2     1  ZINC001083519372    0.1400
     15 C15        -3.4317    2.9246   52.0050 C.2     1  ZINC001083519372   -0.1500
     16 C16        -2.0738    3.2691   51.9745 C.2     1  ZINC001083519372    0.1800
     17 N17        -1.3839    3.1563   50.8650 N.2     1  ZINC001083519372   -0.4400
     18 C18        -1.9518    2.7125   49.7388 C.2     1  ZINC001083519372    0.2500
     19 C19        -1.4581    2.5038   48.4555 C.2     1  ZINC001083519372   -0.2500
     20 C20        -2.5001    2.0288   47.6764 C.2     1  ZINC001083519372    0.1000
     21 N21        -3.5840    1.9417   48.4164 N.2     1  ZINC001083519372   -0.3100
     22 N22        -3.2775    2.3566   49.7169 N.pl3   1  ZINC001083519372   -0.3100
     23 C23        -7.6498   -0.1675   51.9020 C.3     1  ZINC001083519372    0.0900
     24 H24        -7.8968   -0.4510   50.8789 H       1  ZINC001083519372    0.0800
     25 O25        -6.4553   -0.8284   52.3244 O.3     1  ZINC001083519372   -0.5600
     26 C26        -8.8157   -0.5099   52.8478 C.3     1  ZINC001083519372    0.0100
     27 N27       -12.1049    0.2180   53.9067 N.2     1  ZINC001083519372   -0.4800
     28 C28       -13.1529   -0.4891   54.2201 C.2     1  ZINC001083519372    0.1700
     29 O29       -12.8745   -1.2104   55.3141 O.3     1  ZINC001083519372   -0.2000
     30 H30       -12.2235   -0.6479   58.3123 H       1  ZINC001083519372    0.0600
     31 H31       -12.6540   -2.2914   57.7815 H       1  ZINC001083519372    0.0600
     32 H32       -11.2960   -2.0463   58.9059 H       1  ZINC001083519372    0.0700
     33 H33       -10.0489   -0.8376   57.1361 H       1  ZINC001083519372    0.1000
     34 H34       -11.1442   -3.5386   56.2299 H       1  ZINC001083519372    0.0600
     35 H35        -9.6381   -2.7836   55.6554 H       1  ZINC001083519372    0.0600
     36 H36        -9.7863   -3.2936   57.3544 H       1  ZINC001083519372    0.0700
     37 H37        -9.7843    1.5390   55.3170 H       1  ZINC001083519372    0.0900
     38 H38        -9.0664   -0.0897   55.3328 H       1  ZINC001083519372    0.0600
     39 H39        -8.4710    2.7292   53.4012 H       1  ZINC001083519372    0.1000
     40 H40        -7.4421    1.4901   54.1905 H       1  ZINC001083519372    0.0600
     41 H41        -5.5594    1.7207   52.8388 H       1  ZINC001083519372    0.4300
     42 H42        -3.9985    3.0185   52.9194 H       1  ZINC001083519372    0.1800
     43 H43        -1.5920    3.6305   52.8711 H       1  ZINC001083519372    0.1900
     44 H44        -0.4450    2.6806   48.1258 H       1  ZINC001083519372    0.1700
     45 H45        -2.4333    1.7715   46.6297 H       1  ZINC001083519372    0.2000
     46 H46        -6.1273   -0.5356   53.1857 H       1  ZINC001083519372    0.3900
     47 H47        -8.4680   -1.1712   53.6415 H       1  ZINC001083519372    0.0700
     48 H48        -9.6197   -0.9879   52.2882 H       1  ZINC001083519372    0.0900
     49 H49       -14.0904   -0.4958   53.6840 H       1  ZINC001083519372    0.2500
@<TRIPOS>BOND
     1     1     2    1
     2     1    30    1
     3     1    31    1
     4     1    32    1
     5     2     3    1
     6     2     4    1
     7     2    33    1
     8     3    34    1
     9     3    35    1
    10     3    36    1
    11     4    29    1
    12     4     5    2
    13     5     6    1
    14     5    27    1
    15     6     7    1
    16     6    37    1
    17     6    38    1
    18     7    26    1
    19     7     8    1
    20     8     9    1
    21     8    39    1
    22     8    40    1
    23     9    10    1
    24     9    11    1
    25     9    23    1
    26    11    12   am
    27    11    41    1
    28    12    13    2
    29    12    14    1
    30    14    22    1
    31    14    15    2
    32    15    16    1
    33    15    42    1
    34    16    17    2
    35    16    43    1
    36    17    18    1
    37    18    22    1
    38    18    19    2
    39    19    20    1
    40    19    44    1
    41    20    21    2
    42    20    45    1
    43    21    22    1
    44    23    24    1
    45    23    25    1
    46    23    26    1
    47    25    46    1
    48    26    47    1
    49    26    48    1
    50    27    28    2
    51    28    29    1
    52    28    49    1
@<TRIPOS>SUBSTRUCTURE
     1 ZINC001083519372        1 TEMP              0 ****  ****    0 ROOT


##########                                Name:    ZINC000110375116
##########                DOCK_Rotatable_Bonds:                  10
##########                         Heavy_Atoms:                  27
##########                    Molecular_Weight:             396.511
##########                DOCK_Rotatable_Bonds:                  10
##########                       Formal_Charge:        -2.23517e-07
##########                     HBond_Acceptors:                   9
##########                        HBond_Donors:                   0
##########                         Heavy_Atoms:                  27
##########                          Grid_Score:          -35.425911
##########                     Grid_vdw_energy:          -34.931808
##########                      Grid_es_energy:           -0.494101
##########           Internal_energy_repulsive:           31.775881

@<TRIPOS>MOLECULE
ZINC000110375116
 55 56 1 0 0
SMALL
USER_CHARGES


@<TRIPOS>ATOM
      1 C1         -9.6177    0.0605   59.4858 C.3     1  ZINC000110375116   -0.1700
      2 C2         -8.8578   -0.5972   58.3321 C.3     1  ZINC000110375116    0.1000
      3 N3         -9.6609   -0.5164   57.1095 N.am    1  ZINC000110375116   -0.6200
      4 C4        -10.6947   -1.5199   56.8445 C.3     1  ZINC000110375116    0.1100
      5 C5        -10.4132   -2.7737   57.6750 C.3     1  ZINC000110375116   -0.1700
      6 C6         -9.4485    0.4812   56.2284 C.2     1  ZINC000110375116    0.5100
      7 O7         -8.5917    1.3112   56.4471 O.2     1  ZINC000110375116   -0.5300
      8 C8        -10.2759    0.5653   54.9716 C.3     1  ZINC000110375116   -0.1400
      9 C9         -9.5472   -0.1505   53.8325 C.3     1  ZINC000110375116   -0.0900
     10 C10        -8.5277    0.8004   53.2022 C.3     1  ZINC000110375116   -0.1400
     11 C11        -7.9391    0.1613   51.9709 C.2     1  ZINC000110375116    0.5200
     12 O12        -8.2096   -0.9886   51.6962 O.2     1  ZINC000110375116   -0.5300
     13 N13        -7.1120    0.8676   51.1749 N.am    1  ZINC000110375116   -0.6200
     14 C14        -6.7719    2.2605   51.4976 C.3     1  ZINC000110375116    0.0900
     15 C15        -5.2452    2.3885   51.5679 C.3     1  ZINC000110375116    0.1000
     16 N16        -4.6669    1.7795   50.3619 N.am    1  ZINC000110375116   -1.0000
     17 S17        -3.6498    2.6469   49.3845 S.o2    1  ZINC000110375116    2.7000
     18 O18        -3.1558    1.7370   48.4112 O.2     1  ZINC000110375116   -0.9400
     19 O19        -4.3385    3.8441   49.0505 O.2     1  ZINC000110375116   -0.9500
     20 C20        -2.2665    3.1258   50.3652 C.ar    1  ZINC000110375116   -0.7400
     21 C21        -1.0465    2.4840   50.2188 C.ar    1  ZINC000110375116    0.0200
     22 C22         0.0146    2.8946   51.0115 C.ar    1  ZINC000110375116   -0.1900
     23 C23        -0.1779    3.9227   51.9146 C.ar    1  ZINC000110375116    0.1500
     24 N24        -1.3530    4.5106   52.0270 N.ar    1  ZINC000110375116   -0.4900
     25 C25        -2.3825    4.1501   51.2862 C.ar    1  ZINC000110375116    0.2000
     26 C26        -5.0070    0.3866   50.0391 C.3     1  ZINC000110375116    0.1000
     27 C27        -6.5292    0.2568   49.9719 C.3     1  ZINC000110375116    0.1000
     28 H28        -9.0202    0.0003   60.3955 H       1  ZINC000110375116    0.0700
     29 H29        -9.8092    1.1062   59.2453 H       1  ZINC000110375116    0.0600
     30 H30       -10.5650   -0.4566   59.6385 H       1  ZINC000110375116    0.0600
     31 H31        -7.9105   -0.0801   58.1794 H       1  ZINC000110375116    0.0800
     32 H32        -8.6663   -1.6430   58.5726 H       1  ZINC000110375116    0.0800
     33 H33       -11.6705   -1.1166   57.1149 H       1  ZINC000110375116    0.0800
     34 H34       -10.6887   -1.7768   55.7852 H       1  ZINC000110375116    0.0800
     35 H35       -11.1824   -3.5204   57.4778 H       1  ZINC000110375116    0.0700
     36 H36        -9.4374   -3.1771   57.4045 H       1  ZINC000110375116    0.0500
     37 H37       -10.4193   -2.5167   58.7342 H       1  ZINC000110375116    0.0600
     38 H38       -11.2421    0.0900   55.1402 H       1  ZINC000110375116    0.0900
     39 H39       -10.4270    1.6115   54.7055 H       1  ZINC000110375116    0.0900
     40 H40        -9.0320   -1.0272   54.2251 H       1  ZINC000110375116    0.0800
     41 H41       -10.2694   -0.4612   53.0777 H       1  ZINC000110375116    0.0800
     42 H42        -9.0217    1.7322   52.9270 H       1  ZINC000110375116    0.1000
     43 H43        -7.7331    1.0082   53.9188 H       1  ZINC000110375116    0.1000
     44 H44        -7.1591    2.9208   50.7217 H       1  ZINC000110375116    0.0800
     45 H45        -7.2063    2.5293   52.4606 H       1  ZINC000110375116    0.1000
     46 H46        -4.9682    3.4416   51.6147 H       1  ZINC000110375116    0.1100
     47 H47        -4.8750    1.8707   52.4527 H       1  ZINC000110375116    0.0800
     48 H48        -0.9254    1.6830   49.5046 H       1  ZINC000110375116    0.1500
     49 H49         0.9792    2.4169   50.9244 H       1  ZINC000110375116    0.1500
     50 H50         0.6434    4.2481   52.5360 H       1  ZINC000110375116    0.1700
     51 H51        -3.3295    4.6549   51.4064 H       1  ZINC000110375116    0.1700
     52 H52        -4.5726    0.1177   49.0762 H       1  ZINC000110375116    0.1100
     53 H53        -4.6198   -0.2737   50.8151 H       1  ZINC000110375116    0.0800
     54 H54        -6.8048   -0.7968   49.9252 H       1  ZINC000110375116    0.1100
     55 H55        -6.9019    0.7745   49.0880 H       1  ZINC000110375116    0.0800
@<TRIPOS>BOND
     1     1     2    1
     2     1    28    1
     3     1    29    1
     4     1    30    1
     5     2     3    1
     6     2    31    1
     7     2    32    1
     8     3     4    1
     9     3     6   am
    10     4     5    1
    11     4    33    1
    12     4    34    1
    13     5    35    1
    14     5    36    1
    15     5    37    1
    16     6     7    2
    17     6     8    1
    18     8     9    1
    19     8    38    1
    20     8    39    1
    21     9    10    1
    22     9    40    1
    23     9    41    1
    24    10    11    1
    25    10    42    1
    26    10    43    1
    27    11    12    2
    28    11    13   am
    29    13    27    1
    30    13    14    1
    31    14    15    1
    32    14    44    1
    33    14    45    1
    34    15    16    1
    35    15    46    1
    36    15    47    1
    37    16    17   am
    38    16    26    1
    39    17    18    2
    40    17    19    2
    41    17    20    1
    42    20    25   ar
    43    20    21   ar
    44    21    22   ar
    45    21    48    1
    46    22    23   ar
    47    22    49    1
    48    23    24   ar
    49    23    50    1
    50    24    25   ar
    51    25    51    1
    52    26    27    1
    53    26    52    1
    54    26    53    1
    55    27    54    1
    56    27    55    1
@<TRIPOS>SUBSTRUCTURE
     1 ZINC000110375116        1 TEMP              0 ****  ****    0 ROOT


##########                                Name:    ZINC001191196975
##########                DOCK_Rotatable_Bonds:                  14
##########                         Heavy_Atoms:                  24
##########                    Molecular_Weight:             339.438
##########                DOCK_Rotatable_Bonds:                  14
##########                       Formal_Charge:          0.00999969
##########                     HBond_Acceptors:                   8
##########                        HBond_Donors:                   4
##########                         Heavy_Atoms:                  24
##########                          Grid_Score:          -35.418911
##########                     Grid_vdw_energy:          -32.406063
##########                      Grid_es_energy:           -3.012847
##########           Internal_energy_repulsive:           14.137877

@<TRIPOS>MOLECULE
ZINC001191196975
 53 53 1 0 0
SMALL
USER_CHARGES


@<TRIPOS>ATOM
      1 C1         -7.8351    0.9928   59.0884 C.2     1  ZINC001191196975   -0.1600
      2 C2         -7.3495    1.0300   57.8724 C.2     1  ZINC001191196975   -0.1800
      3 C3         -6.8003    2.3199   57.3194 C.3     1  ZINC001191196975    0.1500
      4 N4         -6.9137    2.3126   55.8588 N.am    1  ZINC001191196975   -0.7300
      5 C5         -8.1202    2.4572   55.2759 C.2     1  ZINC001191196975    0.5100
      6 O6         -9.1118    2.5949   55.9604 O.2     1  ZINC001191196975   -0.5200
      7 C7         -8.2370    2.4479   53.7734 C.3     1  ZINC001191196975    0.0300
      8 N8         -8.0205    1.0835   53.2739 N.3     1  ZINC001191196975   -0.5100
      9 C9         -9.2595    0.2968   53.3375 C.3     1  ZINC001191196975    0.0200
     10 C10        -7.4785    1.1025   51.9086 C.3     1  ZINC001191196975    0.0700
     11 H11        -8.1490    1.6317   51.2317 H       1  ZINC001191196975    0.0600
     12 C12        -7.1983   -0.3369   51.4015 C.3     1  ZINC001191196975   -0.1200
     13 C13        -6.0758   -0.1252   50.3638 C.3     1  ZINC001191196975    0.1000
     14 N14        -5.4181    1.1496   50.6860 N.am    1  ZINC001191196975   -0.6200
     15 C15        -4.3984    1.7028   50.0000 C.2     1  ZINC001191196975    0.5300
     16 O16        -3.9486    1.1407   49.0240 O.2     1  ZINC001191196975   -0.5400
     17 C17        -3.8172    3.0198   50.4457 C.3     1  ZINC001191196975   -0.1300
     18 C18        -2.4173    3.1868   49.8513 C.3     1  ZINC001191196975   -0.1000
     19 C19        -1.6005    4.1371   50.7291 C.3     1  ZINC001191196975   -0.1300
     20 C20        -0.1183    4.0168   50.3691 C.3     1  ZINC001191196975    0.1400
     21 N21         0.3954    2.7279   50.8391 N.am    1  ZINC001191196975   -0.7500
     22 C22         1.3121    2.0613   50.1098 C.2     1  ZINC001191196975    0.7000
     23 N23         1.7859    0.8763   50.5431 N.am    1  ZINC001191196975   -0.8700
     24 O24         1.7115    2.5290   49.0610 O.2     1  ZINC001191196975   -0.5900
     25 C25        -6.0597    1.7239   51.8832 C.3     1  ZINC001191196975    0.1100
     26 H26        -7.8419    1.8866   59.6947 H       1  ZINC001191196975    0.1000
     27 H27        -8.2327    0.0695   59.4831 H       1  ZINC001191196975    0.1000
     28 H28        -7.3426    0.1363   57.2660 H       1  ZINC001191196975    0.1200
     29 H29        -7.3668    3.1588   57.7236 H       1  ZINC001191196975    0.0800
     30 H30        -5.7523    2.4193   57.6020 H       1  ZINC001191196975    0.0700
     31 H31        -6.1205    2.2036   55.3114 H       1  ZINC001191196975    0.4000
     32 H32        -9.2317    2.7871   53.4842 H       1  ZINC001191196975    0.0700
     33 H33        -7.4875    3.1143   53.3465 H       1  ZINC001191196975    0.1100
     34 H34       -10.0557    0.8303   52.8183 H       1  ZINC001191196975    0.0200
     35 H35        -9.1003   -0.6708   52.8618 H       1  ZINC001191196975    0.0700
     36 H36        -9.5419    0.1472   54.3796 H       1  ZINC001191196975    0.0900
     37 H37        -6.8546   -0.9731   52.2171 H       1  ZINC001191196975    0.0900
     38 H38        -8.0854   -0.7589   50.9293 H       1  ZINC001191196975    0.0800
     39 H39        -5.3549   -0.9404   50.4261 H       1  ZINC001191196975    0.0700
     40 H40        -6.5014   -0.0798   49.3613 H       1  ZINC001191196975    0.0700
     41 H41        -4.4567    3.8335   50.1035 H       1  ZINC001191196975    0.0900
     42 H42        -3.7547    3.0398   51.5337 H       1  ZINC001191196975    0.0900
     43 H43        -1.9227    2.2164   49.8083 H       1  ZINC001191196975    0.0800
     44 H44        -2.4965    3.5991   48.8453 H       1  ZINC001191196975    0.0800
     45 H45        -1.9329    5.1617   50.5623 H       1  ZINC001191196975    0.0700
     46 H46        -1.7421    3.8753   51.7776 H       1  ZINC001191196975    0.0700
     47 H47        -0.0006    4.0822   49.2875 H       1  ZINC001191196975    0.0700
     48 H48         0.4378    4.8248   50.8446 H       1  ZINC001191196975    0.0700
     49 H49         0.0759    2.3542   51.6753 H       1  ZINC001191196975    0.4000
     50 H50         2.4465    0.3971   50.0187 H       1  ZINC001191196975    0.4000
     51 H51         1.4662    0.5026   51.3792 H       1  ZINC001191196975    0.4200
     52 H52        -6.1212    2.8088   51.7971 H       1  ZINC001191196975    0.0800
     53 H53        -5.5077    1.4444   52.7805 H       1  ZINC001191196975    0.0800
@<TRIPOS>BOND
     1     1     2    2
     2     1    26    1
     3     1    27    1
     4     2     3    1
     5     2    28    1
     6     3     4    1
     7     3    29    1
     8     3    30    1
     9     4     5   am
    10     4    31    1
    11     5     6    2
    12     5     7    1
    13     7     8    1
    14     7    32    1
    15     7    33    1
    16     8     9    1
    17     8    10    1
    18     9    34    1
    19     9    35    1
    20     9    36    1
    21    10    11    1
    22    10    25    1
    23    10    12    1
    24    12    13    1
    25    12    37    1
    26    12    38    1
    27    13    14    1
    28    13    39    1
    29    13    40    1
    30    14    15   am
    31    14    25    1
    32    15    16    2
    33    15    17    1
    34    17    18    1
    35    17    41    1
    36    17    42    1
    37    18    19    1
    38    18    43    1
    39    18    44    1
    40    19    20    1
    41    19    45    1
    42    19    46    1
    43    20    21    1
    44    20    47    1
    45    20    48    1
    46    21    22   am
    47    21    49    1
    48    22    23   am
    49    22    24    2
    50    23    50    1
    51    23    51    1
    52    25    52    1
    53    25    53    1
@<TRIPOS>SUBSTRUCTURE
     1 ZINC001191196975        1 TEMP              0 ****  ****    0 ROOT


##########                                Name:    ZINC001573443776
##########                DOCK_Rotatable_Bonds:                   8
##########                         Heavy_Atoms:                  28
##########                    Molecular_Weight:             386.457
##########                DOCK_Rotatable_Bonds:                   8
##########                       Formal_Charge:          0.00999954
##########                     HBond_Acceptors:                  10
##########                        HBond_Donors:                   3
##########                         Heavy_Atoms:                  28
##########                          Grid_Score:          -35.403286
##########                     Grid_vdw_energy:          -33.987148
##########                      Grid_es_energy:           -1.416138
##########           Internal_energy_repulsive:           36.747810

@<TRIPOS>MOLECULE
ZINC001573443776
 54 56 1 0 0
SMALL
USER_CHARGES


@<TRIPOS>ATOM
      1 C1         -8.6856   -0.1892   58.8307 C.3     1  ZINC001573443776   -0.1800
      2 C2         -8.1866    0.5458   57.6134 C.2     1  ZINC001573443776    0.5100
      3 O3         -7.0558    0.9839   57.5907 O.2     1  ZINC001573443776   -0.5400
      4 N4         -8.9969    0.7163   56.5501 N.am    1  ZINC001573443776   -0.6100
      5 C5        -10.3691    0.1914   56.5628 C.3     1  ZINC001573443776    0.1100
      6 C6        -10.5742   -0.6827   55.3214 C.3     1  ZINC001573443776   -0.1300
      7 C7        -10.2216    0.1247   54.0700 C.3     1  ZINC001573443776   -0.1000
      8 C8         -8.7507    0.5431   54.1285 C.3     1  ZINC001573443776   -0.1200
      9 H9         -8.1224   -0.3447   54.2011 H       1  ZINC001573443776    0.1000
     10 C10        -8.3958    1.3097   52.8804 C.2     1  ZINC001573443776    0.5200
     11 O11        -9.2679    1.8426   52.2276 O.2     1  ZINC001573443776   -0.5300
     12 N12        -7.1092    1.4028   52.4898 N.am    1  ZINC001573443776   -0.7300
     13 C13        -6.7641    2.1494   51.2776 C.3     1  ZINC001573443776    0.1100
     14 C14        -5.4862    1.5694   50.6679 C.3     1  ZINC001573443776    0.1400
     15 H15        -4.7435    1.4230   51.4520 H       1  ZINC001573443776    0.0900
     16 C16        -5.8009    0.2262   50.0062 C.3     1  ZINC001573443776   -0.1700
     17 N17        -4.9597    2.4970   49.6636 N.pl3   1  ZINC001573443776   -0.7200
     18 C18        -3.5984    2.5224   49.3875 C.ar    1  ZINC001573443776    0.4300
     19 C19        -2.7054    2.9359   50.3718 C.ar    1  ZINC001573443776   -0.2500
     20 C20        -1.3536    2.9579   50.0895 C.ar    1  ZINC001573443776    0.0100
     21 C21        -0.9333    2.5605   48.8158 C.ar    1  ZINC001573443776   -0.1400
     22 C22         0.5086    2.5661   48.4637 C.2     1  ZINC001573443776    0.2400
     23 N23         1.1954    3.5787   47.9730 N.2     1  ZINC001573443776   -0.3000
     24 N24         2.4111    3.1858   47.8041 N.pl3   1  ZINC001573443776   -0.2300
     25 N25         2.5164    1.9567   48.1721 N.2     1  ZINC001573443776   -0.0500
     26 N26         1.3673    1.5441   48.5882 N.2     1  ZINC001573443776   -0.2700
     27 C27        -1.8854    2.1595   47.8834 C.ar    1  ZINC001573443776    0.2300
     28 C28        -1.4465    1.7290   46.5075 C.3     1  ZINC001573443776   -0.1200
     29 N29        -3.1664    2.1476   48.1926 N.ar    1  ZINC001573443776   -0.5400
     30 C30        -8.5268    1.4359   55.3585 C.3     1  ZINC001573443776    0.1200
     31 H31        -9.0660    0.5283   59.5577 H       1  ZINC001573443776    0.0900
     32 H32        -9.4847   -0.8715   58.5411 H       1  ZINC001573443776    0.0800
     33 H33        -7.8668   -0.7560   59.2739 H       1  ZINC001573443776    0.1000
     34 H34       -10.5231   -0.4072   57.4605 H       1  ZINC001573443776    0.1000
     35 H35       -11.0774    1.0198   56.5474 H       1  ZINC001573443776    0.0700
     36 H36        -9.9288   -1.5590   55.3828 H       1  ZINC001573443776    0.0700
     37 H37       -11.6155   -1.0002   55.2681 H       1  ZINC001573443776    0.0800
     38 H38       -10.3902   -0.4870   53.1837 H       1  ZINC001573443776    0.0800
     39 H39       -10.8504    1.0137   54.0224 H       1  ZINC001573443776    0.0700
     40 H40        -6.4118    0.9755   53.0113 H       1  ZINC001573443776    0.4000
     41 H41        -7.5786    2.0701   50.5576 H       1  ZINC001573443776    0.0900
     42 H42        -6.6030    3.1976   51.5298 H       1  ZINC001573443776    0.0800
     43 H43        -6.1927   -0.4639   50.7534 H       1  ZINC001573443776    0.0700
     44 H44        -6.5436    0.3726   49.2219 H       1  ZINC001573443776    0.0700
     45 H45        -4.8906   -0.1870   49.5719 H       1  ZINC001573443776    0.0700
     46 H46        -5.5615    3.0934   49.1914 H       1  ZINC001573443776    0.4100
     47 H47        -3.0653    3.2363   51.3447 H       1  ZINC001573443776    0.1400
     48 H48        -0.6384    3.2745   50.8342 H       1  ZINC001573443776    0.1400
     49 H49         3.1334    3.7306   47.4543 H       1  ZINC001573443776    0.4800
     50 H50        -1.2560    0.6558   46.5060 H       1  ZINC001573443776    0.0800
     51 H51        -2.2313    1.9596   45.7871 H       1  ZINC001573443776    0.0800
     52 H52        -0.5349    2.2602   46.2341 H       1  ZINC001573443776    0.1100
     53 H53        -9.0850    2.3650   55.2422 H       1  ZINC001573443776    0.0800
     54 H54        -7.4642    1.6562   55.4616 H       1  ZINC001573443776    0.0900
@<TRIPOS>BOND
     1     1     2    1
     2     1    31    1
     3     1    32    1
     4     1    33    1
     5     2     3    2
     6     2     4   am
     7     4    30    1
     8     4     5    1
     9     5     6    1
    10     5    34    1
    11     5    35    1
    12     6     7    1
    13     6    36    1
    14     6    37    1
    15     7     8    1
    16     7    38    1
    17     7    39    1
    18     8     9    1
    19     8    10    1
    20     8    30    1
    21    10    11    2
    22    10    12   am
    23    12    13    1
    24    12    40    1
    25    13    14    1
    26    13    41    1
    27    13    42    1
    28    14    15    1
    29    14    16    1
    30    14    17    1
    31    16    43    1
    32    16    44    1
    33    16    45    1
    34    17    18    1
    35    17    46    1
    36    18    29   ar
    37    18    19   ar
    38    19    20   ar
    39    19    47    1
    40    20    21   ar
    41    20    48    1
    42    21    22    1
    43    21    27   ar
    44    22    26    1
    45    22    23    2
    46    23    24    1
    47    24    25    1
    48    24    49    1
    49    25    26    2
    50    27    28    1
    51    27    29   ar
    52    28    50    1
    53    28    51    1
    54    28    52    1
    55    30    53    1
    56    30    54    1
@<TRIPOS>SUBSTRUCTURE
     1 ZINC001573443776        1 TEMP              0 ****  ****    0 ROOT


##########                                Name:    ZINC000552360217
##########                DOCK_Rotatable_Bonds:                  13
##########                         Heavy_Atoms:                  27
##########                    Molecular_Weight:             401.484
##########                DOCK_Rotatable_Bonds:                  13
##########                       Formal_Charge:          -0.0100002
##########                     HBond_Acceptors:                  10
##########                        HBond_Donors:                   3
##########                         Heavy_Atoms:                  27
##########                          Grid_Score:          -35.340893
##########                     Grid_vdw_energy:          -34.027328
##########                      Grid_es_energy:           -1.313563
##########           Internal_energy_repulsive:           18.806379

@<TRIPOS>MOLECULE
ZINC000552360217
 54 54 1 0 0
SMALL
USER_CHARGES


@<TRIPOS>ATOM
      1 C1         -9.0159    2.9514   52.2044 C.3     1  ZINC000552360217    0.0800
      2 N2         -8.0075    1.9202   51.9472 N.am    1  ZINC000552360217   -1.0000
      3 C3         -7.2479    1.9349   50.6946 C.3     1  ZINC000552360217    0.0900
      4 S4         -7.7263    0.7380   53.0722 S.o2    1  ZINC000552360217    2.7000
      5 O5         -8.9867    0.1464   53.3562 O.2     1  ZINC000552360217   -0.9500
      6 O6         -6.6075   -0.0029   52.6046 O.2     1  ZINC000552360217   -0.9500
      7 C7         -7.2082    1.5401   54.5530 C.ar    1  ZINC000552360217   -0.6900
      8 C8         -6.2776    2.5621   54.4952 C.ar    1  ZINC000552360217    0.0100
      9 C9         -5.8657    3.1975   55.6534 C.ar    1  ZINC000552360217   -0.1400
     10 C10        -6.3813    2.8150   56.8743 C.ar    1  ZINC000552360217   -0.0300
     11 C11        -7.3206    1.7844   56.9397 C.ar    1  ZINC000552360217   -0.1600
     12 C12        -7.8778    1.3695   58.2447 C.2     1  ZINC000552360217    0.5600
     13 O13        -8.5341    2.1534   58.9024 O.2     1  ZINC000552360217   -0.5300
     14 N14        -7.6580    0.1222   58.7054 N.am    1  ZINC000552360217   -0.7100
     15 C15        -8.2116   -0.2896   59.9978 C.3     1  ZINC000552360217    0.1000
     16 C16        -9.4764   -1.0779   59.7744 C.2     1  ZINC000552360217    0.5100
     17 O17       -10.3499   -1.0742   60.6158 O.2     1  ZINC000552360217   -0.5400
     18 N18        -9.6368   -1.7872   58.6396 N.am    1  ZINC000552360217   -0.7200
     19 C19       -10.8670   -2.5523   58.4217 C.3     1  ZINC000552360217    0.1400
     20 C20       -11.4575   -2.1906   57.0574 C.3     1  ZINC000552360217    0.1000
     21 C21       -12.1067   -0.8072   57.1333 C.3     1  ZINC000552360217   -0.1800
     22 C22       -10.3444   -2.1747   56.0078 C.3     1  ZINC000552360217   -0.1800
     23 O23       -12.4425   -3.1595   56.6926 O.3     1  ZINC000552360217   -0.3700
     24 C24       -13.4989   -3.3012   57.6443 C.3     1  ZINC000552360217    0.0600
     25 C25       -14.4505   -4.4093   57.1889 C.3     1  ZINC000552360217    0.0800
     26 O26       -15.4522   -4.6168   58.1868 O.3     1  ZINC000552360217   -0.5700
     27 C27        -7.7357    1.1513   55.7673 C.ar    1  ZINC000552360217    0.0400
     28 H28        -9.9822    2.6168   51.8271 H       1  ZINC000552360217    0.0600
     29 H29        -9.0870    3.1303   53.2774 H       1  ZINC000552360217    0.0900
     30 H30        -8.7287    3.8742   51.7005 H       1  ZINC000552360217    0.0800
     31 H31        -7.5686    2.7798   50.0850 H       1  ZINC000552360217    0.0800
     32 H32        -6.1847    2.0293   50.9154 H       1  ZINC000552360217    0.0700
     33 H33        -7.4252    1.0068   50.1512 H       1  ZINC000552360217    0.0600
     34 H34        -5.8706    2.8652   53.5418 H       1  ZINC000552360217    0.1500
     35 H35        -5.1386    3.9944   55.6013 H       1  ZINC000552360217    0.1400
     36 H36        -6.0588    3.3114   57.7775 H       1  ZINC000552360217    0.1400
     37 H37        -7.1333   -0.5031   58.1813 H       1  ZINC000552360217    0.4100
     38 H38        -7.4852   -0.9096   60.5233 H       1  ZINC000552360217    0.1000
     39 H39        -8.4350    0.5941   60.5955 H       1  ZINC000552360217    0.1000
     40 H40        -8.9376   -1.7912   57.9673 H       1  ZINC000552360217    0.4100
     41 H41       -10.6416   -3.6183   58.4490 H       1  ZINC000552360217    0.0800
     42 H42       -11.5871   -2.3130   59.2043 H       1  ZINC000552360217    0.0900
     43 H43       -11.3554   -0.0681   57.4115 H       1  ZINC000552360217    0.0700
     44 H44       -12.5275   -0.5495   56.1613 H       1  ZINC000552360217    0.0700
     45 H45       -12.8997   -0.8184   57.8810 H       1  ZINC000552360217    0.0700
     46 H46        -9.8820   -3.1603   55.9538 H       1  ZINC000552360217    0.0600
     47 H47       -10.7652   -1.9171   55.0359 H       1  ZINC000552360217    0.0700
     48 H48        -9.5932   -1.4356   56.2861 H       1  ZINC000552360217    0.0700
     49 H49       -13.0797   -3.5591   58.6169 H       1  ZINC000552360217    0.0600
     50 H50       -14.0462   -2.3617   57.7222 H       1  ZINC000552360217    0.0700
     51 H51       -14.9256   -4.1180   56.2523 H       1  ZINC000552360217    0.0600
     52 H52       -13.8892   -5.3318   57.0402 H       1  ZINC000552360217    0.0500
     53 H53       -16.0769   -5.3241   57.9759 H       1  ZINC000552360217    0.3800
     54 H54        -8.4621    0.3533   55.8112 H       1  ZINC000552360217    0.1500
@<TRIPOS>BOND
     1     1     2    1
     2     1    28    1
     3     1    29    1
     4     1    30    1
     5     2     3    1
     6     2     4   am
     7     3    31    1
     8     3    32    1
     9     3    33    1
    10     4     5    2
    11     4     6    2
    12     4     7    1
    13     7    27   ar
    14     7     8   ar
    15     8     9   ar
    16     8    34    1
    17     9    10   ar
    18     9    35    1
    19    10    11   ar
    20    10    36    1
    21    11    12    1
    22    11    27   ar
    23    12    13    2
    24    12    14   am
    25    14    15    1
    26    14    37    1
    27    15    16    1
    28    15    38    1
    29    15    39    1
    30    16    17    2
    31    16    18   am
    32    18    19    1
    33    18    40    1
    34    19    20    1
    35    19    41    1
    36    19    42    1
    37    20    21    1
    38    20    22    1
    39    20    23    1
    40    21    43    1
    41    21    44    1
    42    21    45    1
    43    22    46    1
    44    22    47    1
    45    22    48    1
    46    23    24    1
    47    24    25    1
    48    24    49    1
    49    24    50    1
    50    25    26    1
    51    25    51    1
    52    25    52    1
    53    26    53    1
    54    27    54    1
@<TRIPOS>SUBSTRUCTURE
     1 ZINC000552360217        1 TEMP              0 ****  ****    0 ROOT


##########                                Name:    ZINC001492779707
##########                DOCK_Rotatable_Bonds:                   8
##########                         Heavy_Atoms:                  27
##########                    Molecular_Weight:             374.483
##########                DOCK_Rotatable_Bonds:                   8
##########                       Formal_Charge:           0.0199998
##########                     HBond_Acceptors:                   7
##########                        HBond_Donors:                   0
##########                         Heavy_Atoms:                  27
##########                          Grid_Score:          -35.247673
##########                     Grid_vdw_energy:          -33.573055
##########                      Grid_es_energy:           -1.674619
##########           Internal_energy_repulsive:            9.579393

@<TRIPOS>MOLECULE
ZINC001492779707
 57 59 1 0 0
SMALL
USER_CHARGES


@<TRIPOS>ATOM
      1 C1         -0.6634    3.0626   48.6527 C.3     1  ZINC001492779707   -0.0700
      2 C2         -2.0420    2.4944   48.8708 C.2     1  ZINC001492779707    0.1800
      3 N3         -2.6231    1.5789   48.1484 N.2     1  ZINC001492779707   -0.2900
      4 N4         -3.7948    1.3282   48.6136 N.2     1  ZINC001492779707   -0.3100
      5 C5         -4.0258    2.0765   49.6665 C.2     1  ZINC001492779707    0.3400
      6 N6         -5.1801    2.0856   50.4334 N.3     1  ZINC001492779707   -0.4600
      7 C7         -6.3252    2.5767   49.6553 C.3     1  ZINC001492779707    0.0300
      8 C8         -5.4535    0.7535   50.9890 C.3     1  ZINC001492779707    0.1100
      9 C9         -6.6170    0.8364   51.9431 C.ar    1  ZINC001492779707   -0.0400
     10 C10        -7.7395    0.0572   51.7328 C.ar    1  ZINC001492779707   -0.1300
     11 C11        -8.8089    0.1309   52.6065 C.ar    1  ZINC001492779707   -0.0800
     12 C12        -8.7579    0.9837   53.6918 C.ar    1  ZINC001492779707   -0.2100
     13 C13        -7.6326    1.7668   53.9050 C.ar    1  ZINC001492779707    0.1300
     14 O14        -7.5798    2.6064   54.9725 O.3     1  ZINC001492779707   -0.3100
     15 C15        -7.0604    2.0730   56.1923 C.3     1  ZINC001492779707    0.0800
     16 C16        -5.8178    2.8639   56.6063 C.3     1  ZINC001492779707   -0.1500
     17 C17        -8.1220    2.1803   57.2887 C.3     1  ZINC001492779707   -0.1800
     18 C18        -6.5590    1.6869   53.0305 C.ar    1  ZINC001492779707   -0.1400
     19 N19        -2.9127    2.8397   49.8671 N.pl3   1  ZINC001492779707   -0.4600
     20 C20        -2.6984    3.8306   50.9247 C.3     1  ZINC001492779707    0.1200
     21 C21        -2.3500    3.1149   52.2313 C.3     1  ZINC001492779707   -0.1200
     22 C22        -2.0117    4.1506   53.3055 C.3     1  ZINC001492779707    0.0600
     23 H23        -1.2154    4.8020   52.9456 H       1  ZINC001492779707    0.0800
     24 C24        -3.2553    4.9875   53.6191 C.3     1  ZINC001492779707    0.0300
     25 O25        -2.9620    5.8767   54.7010 O.3     1  ZINC001492779707   -0.3800
     26 C26        -2.5336    5.2084   55.8914 C.3     1  ZINC001492779707    0.0200
     27 C27        -1.2901    4.3715   55.5778 C.3     1  ZINC001492779707    0.0300
     28 O28        -1.5819    3.4823   54.4954 O.3     1  ZINC001492779707   -0.3800
     29 H29         0.0661    2.4668   49.2012 H       1  ZINC001492779707    0.0900
     30 H30        -0.4252    3.0401   47.5892 H       1  ZINC001492779707    0.1000
     31 H31        -0.6341    4.0921   49.0098 H       1  ZINC001492779707    0.0800
     32 H32        -6.5522    1.8697   48.8573 H       1  ZINC001492779707    0.0500
     33 H33        -7.1919    2.6778   50.3086 H       1  ZINC001492779707    0.0900
     34 H34        -6.0812    3.5469   49.2226 H       1  ZINC001492779707    0.0700
     35 H35        -5.6957    0.0650   50.1796 H       1  ZINC001492779707    0.0700
     36 H36        -4.5725    0.3938   51.5207 H       1  ZINC001492779707    0.0900
     37 H37        -7.7813   -0.6100   50.8846 H       1  ZINC001492779707    0.1200
     38 H38        -9.6847   -0.4786   52.4398 H       1  ZINC001492779707    0.1300
     39 H39        -9.5935    1.0412   54.3737 H       1  ZINC001492779707    0.1300
     40 H40        -6.7930    1.0265   56.0464 H       1  ZINC001492779707    0.0700
     41 H41        -6.0852    3.9106   56.7521 H       1  ZINC001492779707    0.0700
     42 H42        -5.4216    2.4572   57.5367 H       1  ZINC001492779707    0.0800
     43 H43        -5.0615    2.7877   55.8251 H       1  ZINC001492779707    0.0700
     44 H44        -9.0072    1.6168   56.9937 H       1  ZINC001492779707    0.0600
     45 H45        -7.7257    1.7734   58.2191 H       1  ZINC001492779707    0.0700
     46 H46        -8.3894    3.2268   57.4346 H       1  ZINC001492779707    0.0700
     47 H47        -5.6819    2.2954   53.1943 H       1  ZINC001492779707    0.1300
     48 H48        -1.8789    4.4916   50.6426 H       1  ZINC001492779707    0.1000
     49 H49        -3.6069    4.4169   51.0626 H       1  ZINC001492779707    0.1000
     50 H50        -3.2020    2.5184   52.5572 H       1  ZINC001492779707    0.0900
     51 H51        -1.4907    2.4638   52.0709 H       1  ZINC001492779707    0.0800
     52 H52        -3.5370    5.5653   52.7388 H       1  ZINC001492779707    0.1100
     53 H53        -4.0763    4.3285   53.9015 H       1  ZINC001492779707    0.0600
     54 H54        -2.2927    5.9463   56.6566 H       1  ZINC001492779707    0.1100
     55 H55        -3.3303    4.5569   56.2501 H       1  ZINC001492779707    0.0600
     56 H56        -0.4691    5.0305   55.2953 H       1  ZINC001492779707    0.0600
     57 H57        -1.0084    3.7937   56.4581 H       1  ZINC001492779707    0.1100
@<TRIPOS>BOND
     1     1     2    1
     2     1    29    1
     3     1    30    1
     4     1    31    1
     5     2    19    1
     6     2     3    2
     7     3     4    1
     8     4     5    2
     9     5     6    1
    10     5    19    1
    11     6     7    1
    12     6     8    1
    13     7    32    1
    14     7    33    1
    15     7    34    1
    16     8     9    1
    17     8    35    1
    18     8    36    1
    19     9    18   ar
    20     9    10   ar
    21    10    11   ar
    22    10    37    1
    23    11    12   ar
    24    11    38    1
    25    12    13   ar
    26    12    39    1
    27    13    14    1
    28    13    18   ar
    29    14    15    1
    30    15    16    1
    31    15    17    1
    32    15    40    1
    33    16    41    1
    34    16    42    1
    35    16    43    1
    36    17    44    1
    37    17    45    1
    38    17    46    1
    39    18    47    1
    40    19    20    1
    41    20    21    1
    42    20    48    1
    43    20    49    1
    44    21    22    1
    45    21    50    1
    46    21    51    1
    47    22    23    1
    48    22    28    1
    49    22    24    1
    50    24    25    1
    51    24    52    1
    52    24    53    1
    53    25    26    1
    54    26    27    1
    55    26    54    1
    56    26    55    1
    57    27    28    1
    58    27    56    1
    59    27    57    1
@<TRIPOS>SUBSTRUCTURE
     1 ZINC001492779707        1 TEMP              0 ****  ****    0 ROOT


##########                                Name:     oleObject17.pdb
##########                DOCK_Rotatable_Bonds:                   8
##########                         Heavy_Atoms:                  29
##########                    Molecular_Weight:             435.393
##########                DOCK_Rotatable_Bonds:                   8
##########                       Formal_Charge:         0.000400059
##########                     HBond_Acceptors:                   6
##########                        HBond_Donors:                   0
##########                         Heavy_Atoms:                  29
##########                          Grid_Score:          -35.228489
##########                     Grid_vdw_energy:          -35.422810
##########                      Grid_es_energy:            0.194322
##########           Internal_energy_repulsive:           19.210497

@<TRIPOS>MOLECULE
oleObject17.pdb
 57 59 1 0 0
SMALL
NO_CHARGES


@<TRIPOS>ATOM
      1 C          -7.8121    0.2111   58.7189 C.3     1  UNL         0.0391
      2 C          -8.1343    0.9407   60.0248 C.ar    1  UNL        -0.0277
      3 C          -8.2363    2.3522   60.1107 C.ar    1  UNL        -0.0463
      4 C          -8.5042    2.9524   61.3568 C.ar    1  UNL        -0.0590
      5 C          -8.6739    2.1702   62.5084 C.ar    1  UNL        -0.0620
      6 C          -8.5909    0.7743   62.4218 C.ar    1  UNL        -0.0619
      7 C          -8.3283    0.1660   61.1854 C.ar    1  UNL        -0.0572
      8 C          -8.0721    3.2537   58.8919 C.3     1  UNL        -0.0394
      9 N          -9.0249   -0.1849   57.9713 N.am    1  UNL        -0.3003
     10 C          -9.4580    0.5451   56.8647 C.2     1  UNL         0.2175
     11 O          -8.6948    1.3176   56.3101 O.2     1  UNL        -0.2772
     12 C         -10.7425    0.0387   56.1567 C.3     1  UNL         0.0384
     13 C         -10.5067   -1.2620   55.3480 C.3     1  UNL        -0.0289
     14 C          -9.6296   -1.0026   54.1077 C.3     1  UNL        -0.0010
     15 N         -10.2177    0.0282   53.2244 N.4     1  UNL        -0.3010
     16 C         -10.5499    1.3022   53.9043 C.3     1  UNL        -0.0010
     17 C         -11.3668    1.0966   55.2061 C.3     1  UNL        -0.0289
     18 C          -9.4763    0.2050   51.9548 C.3     1  UNL         0.0222
     19 C          -8.1066    0.9013   52.1286 C.3     1  UNL         0.0661
     20 O          -7.8245    1.6508   50.9348 O.3     1  UNL        -0.3432
     21 C          -6.5693    1.6980   50.3587 C.ar    1  UNL         0.0937
     22 C          -5.8513    0.5259   50.0368 C.ar    1  UNL        -0.0288
     23 C          -4.5810    0.6151   49.4442 C.ar    1  UNL        -0.0408
     24 C          -4.0191    1.8723   49.1724 C.ar    1  UNL         0.0422
     25 C          -4.7248    3.0425   49.4931 C.ar    1  UNL        -0.0221
     26 C          -5.9960    2.9564   50.0851 C.ar    1  UNL         0.0723
     27 CL         -6.8536    4.4375   50.4680 Cl      1  UNL        -0.0814
     28 CL         -2.4359    1.9804   48.4330 Cl      1  UNL        -0.0843
     29 C          -9.7362   -1.3757   58.4711 C.3     1  UNL         0.0031
     30 H          -7.2150   -0.6884   58.9056 H       1  UNL         0.0520
     31 H          -7.1953    0.8729   58.0981 H       1  UNL         0.0520
     32 H          -8.5812    4.0330   61.4367 H       1  UNL         0.0626
     33 H          -8.8762    2.6455   63.4641 H       1  UNL         0.0623
     34 H          -8.7275    0.1648   63.3103 H       1  UNL         0.0623
     35 H          -8.2617   -0.9166   61.1310 H       1  UNL         0.0626
     36 H          -8.7544    2.9582   58.0854 H       1  UNL         0.0280
     37 H          -7.0477    3.2160   58.5045 H       1  UNL         0.0280
     38 H          -8.2913    4.3017   59.1305 H       1  UNL         0.0280
     39 H         -11.4810   -0.1722   56.9392 H       1  UNL         0.0402
     40 H         -11.4743   -1.6636   55.0199 H       1  UNL         0.0288
     41 H         -10.0473   -2.0377   55.9693 H       1  UNL         0.0288
     42 H          -9.5080   -1.9432   53.5552 H       1  UNL         0.0431
     43 H          -8.6375   -0.6840   54.4470 H       1  UNL         0.0431
     44 H         -11.1271    1.9422   53.2247 H       1  UNL         0.0431
     45 H          -9.6284    1.8427   54.1480 H       1  UNL         0.0431
     46 H         -12.3779    0.7694   54.9312 H       1  UNL         0.0288
     47 H         -11.4817    2.0546   55.7290 H       1  UNL         0.0288
     48 H         -10.0838    0.7925   51.2545 H       1  UNL         0.0455
     49 H          -9.3109   -0.7775   51.4944 H       1  UNL         0.0455
     50 H          -7.3225    0.1510   52.2818 H       1  UNL         0.0586
     51 H          -8.1327    1.5703   52.9972 H       1  UNL         0.0586
     52 H          -6.2644   -0.4565   50.2411 H       1  UNL         0.0651
     53 H          -4.0335   -0.2904   49.1978 H       1  UNL         0.0639
     54 H          -4.2886    4.0149   49.2827 H       1  UNL         0.0655
     55 H          -9.6612   -1.4316   59.5644 H       1  UNL         0.0433
     56 H          -9.3003   -2.2842   58.0384 H       1  UNL         0.0433
     57 H         -10.7990   -1.3217   58.2053 H       1  UNL         0.0433
@<TRIPOS>BOND
     1     1     2    1
     2     1     9    1
     3     1    30    1
     4     1    31    1
     5     2     3   ar
     6     2     7   ar
     7     3     4   ar
     8     3     8    1
     9     4     5   ar
    10     4    32    1
    11     5     6   ar
    12     5    33    1
    13     6     7   ar
    14     6    34    1
    15     7    35    1
    16     8    36    1
    17     8    37    1
    18     8    38    1
    19     9    10   am
    20     9    29    1
    21    10    11    2
    22    10    12    1
    23    12    13    1
    24    12    17    1
    25    12    39    1
    26    13    14    1
    27    13    40    1
    28    13    41    1
    29    14    15    1
    30    14    42    1
    31    14    43    1
    32    15    16    1
    33    15    18    1
    34    16    17    1
    35    16    44    1
    36    16    45    1
    37    17    46    1
    38    17    47    1
    39    18    19    1
    40    18    48    1
    41    18    49    1
    42    19    20    1
    43    19    50    1
    44    19    51    1
    45    20    21    1
    46    21    22   ar
    47    21    26   ar
    48    22    23   ar
    49    22    52    1
    50    23    24   ar
    51    23    53    1
    52    24    25   ar
    53    24    28    1
    54    25    26   ar
    55    25    54    1
    56    26    27    1
    57    29    55    1
    58    29    56    1
    59    29    57    1
@<TRIPOS>SUBSTRUCTURE
     1 UNL         1 TEMP              0 ****  ****    0 ROOT


##########                                Name:     oleObject42.pdb
##########                DOCK_Rotatable_Bonds:                   9
##########                         Heavy_Atoms:                  36
##########                    Molecular_Weight:             527.493
##########                DOCK_Rotatable_Bonds:                   9
##########                       Formal_Charge:         9.99384e-05
##########                     HBond_Acceptors:                   8
##########                        HBond_Donors:                   0
##########                         Heavy_Atoms:                  36
##########                          Grid_Score:          -35.096302
##########                     Grid_vdw_energy:          -35.157185
##########                      Grid_es_energy:            0.060884
##########           Internal_energy_repulsive:           35.521431

@<TRIPOS>MOLECULE
oleObject42.pdb
 68 71 1 0 0
SMALL
NO_CHARGES


@<TRIPOS>ATOM
      1 C         -12.7948    2.6015   64.3641 C.ar    1  UNL        -0.0435
      2 C         -11.8633    3.6170   64.6245 C.ar    1  UNL        -0.0559
      3 C         -10.5326    3.4544   64.1953 C.ar    1  UNL        -0.0272
      4 C         -10.1853    2.2613   63.5127 C.ar    1  UNL         0.0699
      5 N         -11.0946    1.2890   63.2681 N.ar    1  UNL        -0.2586
      6 C         -12.3648    1.4539   63.6819 C.ar    1  UNL         0.0272
      7 C          -8.7544    2.0060   63.0093 C.3     1  UNL         0.1101
      8 C          -7.7293    1.8387   64.1478 C.ar    1  UNL         0.0699
      9 C          -8.0066    1.0269   65.2766 C.ar    1  UNL        -0.0272
     10 C          -7.0306    0.9261   66.2859 C.ar    1  UNL        -0.0559
     11 C          -5.8251    1.6280   66.1439 C.ar    1  UNL        -0.0435
     12 C          -5.6348    2.4109   64.9960 C.ar    1  UNL         0.0272
     13 N          -6.5624    2.5147   64.0263 N.ar    1  UNL        -0.2586
     14 C          -9.3192    0.2657   65.4280 C.3     1  UNL        -0.0379
     15 N          -8.6912    0.9453   61.9657 N.am    1  UNL        -0.2902
     16 C          -9.3230    1.0608   60.7268 C.2     1  UNL         0.2180
     17 O         -10.1680    1.9218   60.5452 O.2     1  UNL        -0.2772
     18 C          -9.1683   -0.1245   59.7426 C.3     1  UNL         0.0385
     19 C          -7.8020   -0.0795   59.0169 C.3     1  UNL        -0.0289
     20 C          -7.7543    1.0129   57.9272 C.3     1  UNL        -0.0010
     21 N          -8.8591    0.8575   56.9564 N.4     1  UNL        -0.3010
     22 C         -10.2039    0.8464   57.5738 C.3     1  UNL        -0.0010
     23 C         -10.3197   -0.2026   58.7058 C.3     1  UNL        -0.0289
     24 C          -8.7477    1.7375   55.7719 C.3     1  UNL         0.0222
     25 C          -7.7275    1.2491   54.7193 C.3     1  UNL         0.0661
     26 O          -7.8697    2.0743   53.5525 O.3     1  UNL        -0.3432
     27 C          -6.9407    1.9696   52.5466 C.ar    1  UNL         0.0937
     28 C          -6.9837    0.8559   51.6910 C.ar    1  UNL        -0.0288
     29 C          -6.0418    0.7267   50.6568 C.ar    1  UNL        -0.0408
     30 C          -5.0550    1.7112   50.4815 C.ar    1  UNL         0.0422
     31 C          -5.0062    2.8233   51.3386 C.ar    1  UNL        -0.0221
     32 C          -5.9475    2.9545   52.3735 C.ar    1  UNL         0.0723
     33 CL         -5.8618    4.3495   53.4330 Cl      1  UNL        -0.0814
     34 CL         -3.8809    1.5503   49.1929 Cl      1  UNL        -0.0843
     35 C          -8.0568   -0.3286   62.3601 C.3     1  UNL         0.0038
     36 C          -9.5185    4.5585   64.4738 C.3     1  UNL        -0.0379
     37 H         -13.8282    2.7014   64.6828 H       1  UNL         0.0639
     38 H         -12.1725    4.5162   65.1500 H       1  UNL         0.0627
     39 H         -13.0565    0.6425   63.4588 H       1  UNL         0.0840
     40 H          -8.4638    2.9293   62.5014 H       1  UNL         0.0643
     41 H          -7.2020    0.3131   67.1663 H       1  UNL         0.0627
     42 H          -5.0542    1.5671   66.9065 H       1  UNL         0.0639
     43 H          -4.7132    2.9720   64.8469 H       1  UNL         0.0840
     44 H         -10.1702    0.9547   65.4953 H       1  UNL         0.0280
     45 H          -9.3255   -0.3510   66.3354 H       1  UNL         0.0280
     46 H          -9.4896   -0.4063   64.5779 H       1  UNL         0.0280
     47 H          -9.2136   -1.0574   60.3137 H       1  UNL         0.0402
     48 H          -7.6160   -1.0535   58.5458 H       1  UNL         0.0288
     49 H          -6.9909    0.0814   59.7369 H       1  UNL         0.0288
     50 H          -6.7897    0.9496   57.4073 H       1  UNL         0.0431
     51 H          -7.8105    1.9977   58.4084 H       1  UNL         0.0431
     52 H         -10.9603    0.6224   56.8107 H       1  UNL         0.0431
     53 H         -10.4363    1.8376   57.9806 H       1  UNL         0.0431
     54 H         -10.3099   -1.2008   58.2493 H       1  UNL         0.0288
     55 H         -11.2884   -0.1011   59.2118 H       1  UNL         0.0288
     56 H          -8.4600    2.7460   56.0953 H       1  UNL         0.0455
     57 H          -9.7307    1.8214   55.2909 H       1  UNL         0.0455
     58 H          -7.9234    0.2008   54.4627 H       1  UNL         0.0586
     59 H          -6.7070    1.3292   55.1134 H       1  UNL         0.0586
     60 H          -7.7466    0.0954   51.8301 H       1  UNL         0.0652
     61 H          -6.0771   -0.1340   49.9950 H       1  UNL         0.0639
     62 H          -4.2400    3.5812   51.2019 H       1  UNL         0.0655
     63 H          -7.2632   -0.1528   63.0970 H       1  UNL         0.0433
     64 H          -7.6109   -0.8129   61.4822 H       1  UNL         0.0433
     65 H          -8.8105   -0.9975   62.7940 H       1  UNL         0.0433
     66 H          -9.9836    5.4166   64.9749 H       1  UNL         0.0280
     67 H          -9.0700    4.9304   63.5446 H       1  UNL         0.0280
     68 H          -8.7117    4.1995   65.1241 H       1  UNL         0.0280
@<TRIPOS>BOND
     1     1     2   ar
     2     1     6   ar
     3     1    37    1
     4     2     3   ar
     5     2    38    1
     6     3     4   ar
     7     3    36    1
     8     4     5   ar
     9     4     7    1
    10     5     6   ar
    11     6    39    1
    12     7     8    1
    13     7    15    1
    14     7    40    1
    15     8     9   ar
    16     8    13   ar
    17     9    10   ar
    18     9    14    1
    19    10    11   ar
    20    10    41    1
    21    11    12   ar
    22    11    42    1
    23    12    13   ar
    24    12    43    1
    25    14    44    1
    26    14    45    1
    27    14    46    1
    28    15    16   am
    29    15    35    1
    30    16    17    2
    31    16    18    1
    32    18    19    1
    33    18    23    1
    34    18    47    1
    35    19    20    1
    36    19    48    1
    37    19    49    1
    38    20    21    1
    39    20    50    1
    40    20    51    1
    41    21    22    1
    42    21    24    1
    43    22    23    1
    44    22    52    1
    45    22    53    1
    46    23    54    1
    47    23    55    1
    48    24    25    1
    49    24    56    1
    50    24    57    1
    51    25    26    1
    52    25    58    1
    53    25    59    1
    54    26    27    1
    55    27    28   ar
    56    27    32   ar
    57    28    29   ar
    58    28    60    1
    59    29    30   ar
    60    29    61    1
    61    30    31   ar
    62    30    34    1
    63    31    32   ar
    64    31    62    1
    65    32    33    1
    66    35    63    1
    67    35    64    1
    68    35    65    1
    69    36    66    1
    70    36    67    1
    71    36    68    1
@<TRIPOS>SUBSTRUCTURE
     1 UNL         1 TEMP              0 ****  ****    0 ROOT


##########                                Name:    ZINC000484900616
##########                DOCK_Rotatable_Bonds:                  10
##########                         Heavy_Atoms:                  29
##########                    Molecular_Weight:             415.556
##########                DOCK_Rotatable_Bonds:                  10
##########                       Formal_Charge:        -1.49012e-08
##########                     HBond_Acceptors:                   7
##########                        HBond_Donors:                   1
##########                         Heavy_Atoms:                  29
##########                          Grid_Score:          -35.088165
##########                     Grid_vdw_energy:          -34.553333
##########                      Grid_es_energy:           -0.534833
##########           Internal_energy_repulsive:           15.991381

@<TRIPOS>MOLECULE
ZINC000484900616
 58 60 1 0 0
SMALL
USER_CHARGES


@<TRIPOS>ATOM
      1 C1         -8.8895    3.7818   60.8290 C.3     1  ZINC000484900616   -0.1500
      2 C2         -8.4099    2.9786   59.6183 C.3     1  ZINC000484900616    0.0600
      3 O3         -8.0873    1.6249   60.0327 O.3     1  ZINC000484900616   -0.3400
      4 C4         -7.6343    0.7850   59.0807 C.2     1  ZINC000484900616    0.5500
      5 O5         -7.2670   -0.3339   59.3819 O.2     1  ZINC000484900616   -0.5000
      6 C6         -7.5846    1.2224   57.6769 C.2     1  ZINC000484900616    0.0200
      7 C7         -6.7396    2.1795   57.2296 C.2     1  ZINC000484900616   -0.2400
      8 S8         -6.9894    2.3957   55.5525 S.3     1  ZINC000484900616    0.2900
      9 C9         -8.2061    1.1974   55.5447 C.2     1  ZINC000484900616    0.0300
     10 C10        -8.9810    0.7693   54.3250 C.3     1  ZINC000484900616    0.1500
     11 H11        -9.2088   -0.2954   54.3756 H       1  ZINC000484900616    0.0900
     12 C12       -10.2857    1.5945   54.1980 C.3     1  ZINC000484900616   -0.1200
     13 C13       -10.5758    1.4899   52.6775 C.3     1  ZINC000484900616   -0.1400
     14 C14        -9.1651    1.5098   52.0522 C.3     1  ZINC000484900616    0.0500
     15 N15        -8.2171    1.0745   53.0965 N.3     1  ZINC000484900616   -0.5100
     16 C16        -7.4416   -0.0908   52.6509 C.3     1  ZINC000484900616    0.0300
     17 C17        -6.8160    0.2043   51.3120 C.2     1  ZINC000484900616    0.5200
     18 O18        -6.9858   -0.5561   50.3825 O.2     1  ZINC000484900616   -0.5100
     19 N19        -6.0678    1.3131   51.1476 N.am    1  ZINC000484900616   -0.7300
     20 C20        -5.4610    1.6009   49.8455 C.3     1  ZINC000484900616    0.1900
     21 H21        -5.4954    0.7068   49.2230 H       1  ZINC000484900616    0.1000
     22 C22        -6.2348    2.7293   49.1606 C.3     1  ZINC000484900616   -0.1600
     23 C23        -4.0273    2.0218   50.0414 C.ar    1  ZINC000484900616   -0.1000
     24 C24        -3.1723    2.0888   48.9572 C.ar    1  ZINC000484900616   -0.1100
     25 C25        -1.8572    2.4749   49.1369 C.ar    1  ZINC000484900616   -0.1100
     26 C26        -1.3972    2.7945   50.4006 C.ar    1  ZINC000484900616   -0.0800
     27 C27         0.0366    3.2150   50.5966 C.3     1  ZINC000484900616   -0.0900
     28 C28         0.9365    1.9776   50.5900 C.3     1  ZINC000484900616   -0.1500
     29 C29        -2.2525    2.7288   51.4846 C.ar    1  ZINC000484900616   -0.1100
     30 C30        -3.5687    2.3463   51.3043 C.ar    1  ZINC000484900616   -0.1000
     31 N31        -8.3658    0.7076   56.7232 N.2     1  ZINC000484900616   -0.4300
     32 H32        -9.7771    3.3095   61.2500 H       1  ZINC000484900616    0.0700
     33 H33        -8.1014    3.8103   61.5815 H       1  ZINC000484900616    0.0700
     34 H34        -9.1318    4.7981   60.5179 H       1  ZINC000484900616    0.0800
     35 H35        -9.1979    2.9501   58.8659 H       1  ZINC000484900616    0.0700
     36 H36        -7.5224    3.4510   59.1973 H       1  ZINC000484900616    0.0700
     37 H37        -6.0244    2.7186   57.8332 H       1  ZINC000484900616    0.1900
     38 H38       -11.0901    1.1455   54.7807 H       1  ZINC000484900616    0.0900
     39 H39       -10.1227    2.6308   54.4939 H       1  ZINC000484900616    0.0800
     40 H40       -11.0867    0.5553   52.4461 H       1  ZINC000484900616    0.0700
     41 H41       -11.1604    2.3445   52.3369 H       1  ZINC000484900616    0.0800
     42 H42        -9.1243    0.8229   51.2070 H       1  ZINC000484900616    0.0600
     43 H43        -8.9192    2.5198   51.7243 H       1  ZINC000484900616    0.0900
     44 H44        -6.6588   -0.3061   53.3782 H       1  ZINC000484900616    0.1100
     45 H45        -8.1016   -0.9537   52.5613 H       1  ZINC000484900616    0.0700
     46 H46        -5.9308    1.9206   51.8912 H       1  ZINC000484900616    0.4000
     47 H47        -5.7834    2.9434   48.1919 H       1  ZINC000484900616    0.0700
     48 H48        -7.2718    2.4248   49.0189 H       1  ZINC000484900616    0.0700
     49 H49        -6.2004    3.6233   49.7831 H       1  ZINC000484900616    0.0600
     50 H50        -3.5317    1.8391   47.9698 H       1  ZINC000484900616    0.1200
     51 H51        -1.1890    2.5265   48.2899 H       1  ZINC000484900616    0.1200
     52 H52         0.3327    3.8839   49.7885 H       1  ZINC000484900616    0.0700
     53 H53         0.1364    3.7318   51.5512 H       1  ZINC000484900616    0.0700
     54 H54         0.6403    1.3087   51.3982 H       1  ZINC000484900616    0.0600
     55 H55         0.8367    1.4608   49.6356 H       1  ZINC000484900616    0.0600
     56 H56         1.9735    2.2818   50.7319 H       1  ZINC000484900616    0.0600
     57 H57        -1.8932    2.9788   52.4719 H       1  ZINC000484900616    0.1200
     58 H58        -4.2370    2.2951   52.1513 H       1  ZINC000484900616    0.1200
@<TRIPOS>BOND
     1     1     2    1
     2     1    32    1
     3     1    33    1
     4     1    34    1
     5     2     3    1
     6     2    35    1
     7     2    36    1
     8     3     4    1
     9     4     5    2
    10     4     6    1
    11     6    31    1
    12     6     7    2
    13     7     8    1
    14     7    37    1
    15     8     9    1
    16     9    10    1
    17     9    31    2
    18    10    11    1
    19    10    15    1
    20    10    12    1
    21    12    13    1
    22    12    38    1
    23    12    39    1
    24    13    14    1
    25    13    40    1
    26    13    41    1
    27    14    15    1
    28    14    42    1
    29    14    43    1
    30    15    16    1
    31    16    17    1
    32    16    44    1
    33    16    45    1
    34    17    18    2
    35    17    19   am
    36    19    20    1
    37    19    46    1
    38    20    21    1
    39    20    22    1
    40    20    23    1
    41    22    47    1
    42    22    48    1
    43    22    49    1
    44    23    30   ar
    45    23    24   ar
    46    24    25   ar
    47    24    50    1
    48    25    26   ar
    49    25    51    1
    50    26    27    1
    51    26    29   ar
    52    27    28    1
    53    27    52    1
    54    27    53    1
    55    28    54    1
    56    28    55    1
    57    28    56    1
    58    29    30   ar
    59    29    57    1
    60    30    58    1
@<TRIPOS>SUBSTRUCTURE
     1 ZINC000484900616        1 TEMP              0 ****  ****    0 ROOT


##########                                Name:    ZINC000464139057
##########                DOCK_Rotatable_Bonds:                   9
##########                         Heavy_Atoms:                  30
##########                    Molecular_Weight:              413.56
##########                DOCK_Rotatable_Bonds:                   9
##########                       Formal_Charge:         2.38419e-07
##########                     HBond_Acceptors:                   6
##########                        HBond_Donors:                   2
##########                         Heavy_Atoms:                  30
##########                          Grid_Score:          -35.039082
##########                     Grid_vdw_energy:          -34.647831
##########                      Grid_es_energy:           -0.391252
##########           Internal_energy_repulsive:           12.926362

@<TRIPOS>MOLECULE
ZINC000464139057
 65 67 1 0 0
SMALL
USER_CHARGES


@<TRIPOS>ATOM
      1 C1         -3.3820    3.0548   50.9500 C.3     1  ZINC000464139057   -0.1800
      2 C2         -4.2731    3.2099   49.7160 C.3     1  ZINC000464139057    0.0700
      3 H3         -3.6503    3.3503   48.8325 H       1  ZINC000464139057    0.1200
      4 C4         -5.1313    1.9515   49.5427 C.3     1  ZINC000464139057    0.0800
      5 N5         -6.0907    1.8870   50.6566 N.am    1  ZINC000464139057   -0.6100
      6 C6         -6.2280    0.7645   51.3898 C.2     1  ZINC000464139057    0.5600
      7 O7         -5.5540   -0.2142   51.1350 O.2     1  ZINC000464139057   -0.5300
      8 C8         -7.1988    0.7237   52.5043 C.ar    1  ZINC000464139057   -0.1200
      9 C9         -8.3948    0.0176   52.3666 C.ar    1  ZINC000464139057   -0.0900
     10 C10        -9.2961   -0.0168   53.4105 C.ar    1  ZINC000464139057   -0.1000
     11 C11        -9.0167    0.6470   54.5918 C.ar    1  ZINC000464139057   -0.0900
     12 C12       -10.0061    0.6054   55.7277 C.3     1  ZINC000464139057    0.1800
     13 N13        -9.5183   -0.3044   56.7671 N.am    1  ZINC000464139057   -0.7400
     14 C14        -9.0550    0.1901   57.9322 C.2     1  ZINC000464139057    0.7000
     15 O15        -9.0433    1.3911   58.1211 O.2     1  ZINC000464139057   -0.5900
     16 N16        -8.6047   -0.6468   58.8879 N.am    1  ZINC000464139057   -0.7500
     17 C17        -8.0994   -0.1093   60.1535 C.3     1  ZINC000464139057    0.1400
     18 C18        -9.2271   -0.0938   61.1875 C.3     1  ZINC000464139057   -0.0900
     19 C19        -8.7535    0.6030   62.4370 C.2     1  ZINC000464139057   -0.1200
     20 C20        -9.0014    1.8631   62.6051 C.2     1  ZINC000464139057   -0.1500
     21 C21        -8.5315    2.5752   63.8555 C.3     1  ZINC000464139057   -0.0900
     22 C22        -9.3845    2.1046   65.0356 C.3     1  ZINC000464139057   -0.1100
     23 C23        -8.8172    0.8300   65.6350 C.3     1  ZINC000464139057   -0.1200
     24 C24        -8.8987   -0.3684   64.7060 C.3     1  ZINC000464139057   -0.1100
     25 C25        -7.9961   -0.1751   63.4916 C.3     1  ZINC000464139057   -0.0800
     26 C26        -7.8327    1.3485   54.7350 C.ar    1  ZINC000464139057   -0.1000
     27 C27        -6.9205    1.3864   53.7008 C.ar    1  ZINC000464139057   -0.0700
     28 C28        -6.8954    3.0844   50.9465 C.3     1  ZINC000464139057    0.0700
     29 C29        -5.9513    4.2876   51.0514 C.3     1  ZINC000464139057    0.0700
     30 H30        -5.3226    4.1811   51.9353 H       1  ZINC000464139057    0.0700
     31 C31        -6.7728    5.5738   51.1605 C.3     1  ZINC000464139057   -0.1500
     32 O32        -5.1273    4.3439   49.8833 O.3     1  ZINC000464139057   -0.3700
     33 H33        -4.0055    2.9144   51.8331 H       1  ZINC000464139057    0.0600
     34 H34        -2.7322    2.1890   50.8226 H       1  ZINC000464139057    0.0700
     35 H35        -2.7735    3.9507   51.0736 H       1  ZINC000464139057    0.0700
     36 H36        -5.6700    2.0019   48.5965 H       1  ZINC000464139057    0.0800
     37 H37        -4.4935    1.0676   49.5560 H       1  ZINC000464139057    0.1000
     38 H38        -8.6144   -0.5004   51.4447 H       1  ZINC000464139057    0.1300
     39 H39       -10.2219   -0.5629   53.3052 H       1  ZINC000464139057    0.1300
     40 H40       -10.1221    1.6055   56.1454 H       1  ZINC000464139057    0.0800
     41 H41       -10.9688    0.2522   55.3583 H       1  ZINC000464139057    0.0800
     42 H42        -9.5288   -1.2626   56.6170 H       1  ZINC000464139057    0.4000
     43 H43        -8.6151   -1.6051   58.7376 H       1  ZINC000464139057    0.4000
     44 H44        -7.2840   -0.7359   60.5148 H       1  ZINC000464139057    0.0700
     45 H45        -7.7356    0.9063   59.9976 H       1  ZINC000464139057    0.0700
     46 H46       -10.0871    0.4371   60.7792 H       1  ZINC000464139057    0.0700
     47 H47        -9.5130   -1.1176   61.4286 H       1  ZINC000464139057    0.0800
     48 H48        -9.5461    2.4089   61.8488 H       1  ZINC000464139057    0.1100
     49 H49        -7.4847    2.3349   64.0418 H       1  ZINC000464139057    0.0700
     50 H50        -8.6451    3.6517   63.7281 H       1  ZINC000464139057    0.0700
     51 H51        -9.4022    2.8829   65.7984 H       1  ZINC000464139057    0.0600
     52 H52       -10.4015    1.9175   64.6910 H       1  ZINC000464139057    0.0600
     53 H53        -7.7719    1.0010   65.8925 H       1  ZINC000464139057    0.0600
     54 H54        -9.3653    0.6006   66.5488 H       1  ZINC000464139057    0.0600
     55 H55        -8.5879   -1.2628   65.2460 H       1  ZINC000464139057    0.0600
     56 H56        -9.9282   -0.4926   64.3700 H       1  ZINC000464139057    0.0600
     57 H57        -7.7077   -1.1472   63.0916 H       1  ZINC000464139057    0.0700
     58 H58        -7.1057    0.3824   63.7826 H       1  ZINC000464139057    0.0700
     59 H59        -7.6205    1.8642   55.6599 H       1  ZINC000464139057    0.1300
     60 H60        -5.9966    1.9341   53.8139 H       1  ZINC000464139057    0.1300
     61 H61        -7.6118    3.2489   50.1416 H       1  ZINC000464139057    0.0800
     62 H62        -7.4259    2.9507   51.8892 H       1  ZINC000464139057    0.1000
     63 H63        -7.4028    5.5282   52.0488 H       1  ZINC000464139057    0.0800
     64 H64        -6.1010    6.4288   51.2350 H       1  ZINC000464139057    0.0700
     65 H65        -7.3999    5.6805   50.2754 H       1  ZINC000464139057    0.0700
@<TRIPOS>BOND
     1     1     2    1
     2     1    33    1
     3     1    34    1
     4     1    35    1
     5     2     3    1
     6     2    32    1
     7     2     4    1
     8     4     5    1
     9     4    36    1
    10     4    37    1
    11     5     6   am
    12     5    28    1
    13     6     7    2
    14     6     8    1
    15     8    27   ar
    16     8     9   ar
    17     9    10   ar
    18     9    38    1
    19    10    11   ar
    20    10    39    1
    21    11    12    1
    22    11    26   ar
    23    12    13    1
    24    12    40    1
    25    12    41    1
    26    13    14   am
    27    13    42    1
    28    14    15    2
    29    14    16   am
    30    16    17    1
    31    16    43    1
    32    17    18    1
    33    17    44    1
    34    17    45    1
    35    18    19    1
    36    18    46    1
    37    18    47    1
    38    19    25    1
    39    19    20    2
    40    20    21    1
    41    20    48    1
    42    21    22    1
    43    21    49    1
    44    21    50    1
    45    22    23    1
    46    22    51    1
    47    22    52    1
    48    23    24    1
    49    23    53    1
    50    23    54    1
    51    24    25    1
    52    24    55    1
    53    24    56    1
    54    25    57    1
    55    25    58    1
    56    26    27   ar
    57    26    59    1
    58    27    60    1
    59    28    29    1
    60    28    61    1
    61    28    62    1
    62    29    30    1
    63    29    31    1
    64    29    32    1
    65    31    63    1
    66    31    64    1
    67    31    65    1
@<TRIPOS>SUBSTRUCTURE
     1 ZINC000464139057        1 TEMP              0 ****  ****    0 ROOT


##########                                Name:    ZINC000637608314
##########                DOCK_Rotatable_Bonds:                   9
##########                         Heavy_Atoms:                  28
##########                    Molecular_Weight:             387.479
##########                DOCK_Rotatable_Bonds:                   9
##########                       Formal_Charge:           0.0499991
##########                     HBond_Acceptors:                   7
##########                        HBond_Donors:                   2
##########                         Heavy_Atoms:                  28
##########                          Grid_Score:          -35.024231
##########                     Grid_vdw_energy:          -34.671253
##########                      Grid_es_energy:           -0.352979
##########           Internal_energy_repulsive:           16.901237

@<TRIPOS>MOLECULE
ZINC000637608314
 57 59 1 0 0
SMALL
USER_CHARGES


@<TRIPOS>ATOM
      1 C1         -8.9252   -0.7255   52.9080 C.3     1  ZINC000637608314   -0.1400
      2 C2         -8.7149    0.7872   52.8147 C.3     1  ZINC000637608314   -0.0400
      3 C3        -10.0068    1.4532   52.3370 C.3     1  ZINC000637608314   -0.1500
      4 C4         -8.3377    1.3354   54.1924 C.3     1  ZINC000637608314   -0.1500
      5 C5         -7.6068    1.0809   51.8365 C.2     1  ZINC000637608314    0.1900
      6 C6         -7.3197    2.3641   51.5155 C.2     1  ZINC000637608314   -0.2400
      7 C7         -6.2900    2.6446   50.6064 C.2     1  ZINC000637608314    0.0200
      8 C8         -5.5881    1.6132   50.0550 C.2     1  ZINC000637608314   -0.2400
      9 C9         -4.4761    1.8869   49.0754 C.3     1  ZINC000637608314    0.2100
     10 N10        -3.2984    2.3748   49.7973 N.am    1  ZINC000637608314   -0.7300
     11 C11        -2.1113    2.4673   49.1657 C.2     1  ZINC000637608314    0.7100
     12 O12        -2.0176    2.1443   47.9974 O.2     1  ZINC000637608314   -0.5900
     13 N13        -1.0282    2.9176   49.8294 N.am    1  ZINC000637608314   -0.6200
     14 C14         0.2617    3.0198   49.1426 C.3     1  ZINC000637608314    0.2000
     15 C15         1.0265    1.7329   49.3160 C.2     1  ZINC000637608314   -0.0400
     16 C16         1.7914    1.1404   48.3815 C.2     1  ZINC000637608314   -0.1900
     17 C17         2.3162   -0.0349   48.9666 C.2     1  ZINC000637608314   -0.2200
     18 C18         1.8406   -0.0903   50.2237 C.2     1  ZINC000637608314   -0.0300
     19 O19         1.0647    0.9861   50.4315 O.3     1  ZINC000637608314   -0.1700
     20 C20        -1.1408    3.3049   51.2378 C.3     1  ZINC000637608314    0.1300
     21 C21        -1.5590    4.7737   51.3311 C.3     1  ZINC000637608314    0.0700
     22 H22        -0.8059    5.4032   50.8570 H       1  ZINC000637608314    0.0900
     23 C23        -1.7234    5.1784   52.8117 C.3     1  ZINC000637608314   -0.1500
     24 C24        -2.9766    6.0946   52.7657 C.3     1  ZINC000637608314   -0.1600
     25 C25        -3.7983    5.4129   51.6430 C.3     1  ZINC000637608314    0.0500
     26 O26        -2.8244    4.9605   50.6863 O.3     1  ZINC000637608314   -0.3800
     27 C27        -5.9124    0.2928   50.4105 C.2     1  ZINC000637608314    0.5300
     28 O28        -5.2919   -0.6395   49.9249 O.2     1  ZINC000637608314   -0.5400
     29 N29        -6.9033    0.0559   51.2910 N.am    1  ZINC000637608314   -0.6000
     30 H30        -9.1940   -1.1161   51.9265 H       1  ZINC000637608314    0.0700
     31 H31        -8.0048   -1.1999   53.2483 H       1  ZINC000637608314    0.0700
     32 H32        -9.7266   -0.9379   53.6155 H       1  ZINC000637608314    0.0700
     33 H33       -10.8082    1.2408   53.0445 H       1  ZINC000637608314    0.0700
     34 H34        -9.8570    2.5308   52.2706 H       1  ZINC000637608314    0.0600
     35 H35       -10.2756    1.0626   51.3555 H       1  ZINC000637608314    0.0700
     36 H36        -7.4172    0.8610   54.5327 H       1  ZINC000637608314    0.0700
     37 H37        -8.1878    2.4131   54.1259 H       1  ZINC000637608314    0.0600
     38 H38        -9.1391    1.1230   54.8999 H       1  ZINC000637608314    0.0700
     39 H39        -7.8836    3.1713   51.9592 H       1  ZINC000637608314    0.1500
     40 H40        -6.0556    3.6660   50.3451 H       1  ZINC000637608314    0.1400
     41 H41        -4.2233    0.9677   48.5468 H       1  ZINC000637608314    0.0800
     42 H42        -4.8009    2.6408   48.3584 H       1  ZINC000637608314    0.0800
     43 H43        -3.3729    2.6312   50.7298 H       1  ZINC000637608314    0.4000
     44 H44         0.0947    3.2030   48.0811 H       1  ZINC000637608314    0.1200
     45 H45         0.8354    3.8434   49.5674 H       1  ZINC000637608314    0.0900
     46 H46         1.9699    1.4942   47.3768 H       1  ZINC000637608314    0.1500
     47 H47         2.9726   -0.7510   48.4948 H       1  ZINC000637608314    0.1500
     48 H48         2.0503   -0.8664   50.9447 H       1  ZINC000637608314    0.2000
     49 H49        -1.8898    2.6821   51.7271 H       1  ZINC000637608314    0.0800
     50 H50        -0.1778    3.1693   51.7301 H       1  ZINC000637608314    0.1000
     51 H51        -1.9055    4.3031   53.4352 H       1  ZINC000637608314    0.0800
     52 H52        -0.8515    5.7309   53.1620 H       1  ZINC000637608314    0.0900
     53 H53        -3.5138    6.0734   53.7140 H       1  ZINC000637608314    0.0800
     54 H54        -2.7075    7.1147   52.4916 H       1  ZINC000637608314    0.0800
     55 H55        -4.3573    4.5672   52.0436 H       1  ZINC000637608314    0.0600
     56 H56        -4.4761    6.1308   51.1810 H       1  ZINC000637608314    0.0800
     57 H57        -7.1219   -0.8577   51.5325 H       1  ZINC000637608314    0.4100
@<TRIPOS>BOND
     1     1     2    1
     2     1    30    1
     3     1    31    1
     4     1    32    1
     5     2     3    1
     6     2     4    1
     7     2     5    1
     8     3    33    1
     9     3    34    1
    10     3    35    1
    11     4    36    1
    12     4    37    1
    13     4    38    1
    14     5    29    1
    15     5     6    2
    16     6     7    1
    17     6    39    1
    18     7     8    2
    19     7    40    1
    20     8     9    1
    21     8    27    1
    22     9    10    1
    23     9    41    1
    24     9    42    1
    25    10    11   am
    26    10    43    1
    27    11    12    2
    28    11    13   am
    29    13    14    1
    30    13    20    1
    31    14    15    1
    32    14    44    1
    33    14    45    1
    34    15    19    1
    35    15    16    2
    36    16    17    1
    37    16    46    1
    38    17    18    2
    39    17    47    1
    40    18    19    1
    41    18    48    1
    42    20    21    1
    43    20    49    1
    44    20    50    1
    45    21    22    1
    46    21    26    1
    47    21    23    1
    48    23    24    1
    49    23    51    1
    50    23    52    1
    51    24    25    1
    52    24    53    1
    53    24    54    1
    54    25    26    1
    55    25    55    1
    56    25    56    1
    57    27    28    2
    58    27    29   am
    59    29    57    1
@<TRIPOS>SUBSTRUCTURE
     1 ZINC000637608314        1 TEMP              0 ****  ****    0 ROOT


##########                                Name:    ZINC000590699876
##########                DOCK_Rotatable_Bonds:                   9
##########                         Heavy_Atoms:                  30
##########                    Molecular_Weight:              421.54
##########                DOCK_Rotatable_Bonds:                   9
##########                       Formal_Charge:          -0.0300004
##########                     HBond_Acceptors:                   9
##########                        HBond_Donors:                   1
##########                         Heavy_Atoms:                  30
##########                          Grid_Score:          -35.008499
##########                     Grid_vdw_energy:          -33.915607
##########                      Grid_es_energy:           -1.092890
##########           Internal_energy_repulsive:          102.991562

@<TRIPOS>MOLECULE
ZINC000590699876
 65 67 1 0 0
SMALL
USER_CHARGES


@<TRIPOS>ATOM
      1 C1        -14.8647   -3.0714   60.1699 C.3     1  ZINC000590699876   -0.1700
      2 C2        -14.3433   -1.6633   60.2975 C.2     1  ZINC000590699876    0.5100
      3 O3        -15.0851   -0.7226   60.1090 O.2     1  ZINC000590699876   -0.5500
      4 N4        -13.0526   -1.4493   60.6211 N.am    1  ZINC000590699876   -0.7200
      5 C5        -12.5461   -0.0804   60.7469 C.3     1  ZINC000590699876    0.1100
      6 C6        -11.9594    0.3612   59.4309 C.2     1  ZINC000590699876    0.5300
      7 O7        -12.6843    0.7832   58.5550 O.2     1  ZINC000590699876   -0.5200
      8 N8        -10.6292    0.2868   59.2273 N.am    1  ZINC000590699876   -0.6000
      9 C9         -9.6370   -0.2041   60.2010 C.3     1  ZINC000590699876    0.1000
     10 C10        -8.4355   -0.6710   59.3419 C.3     1  ZINC000590699876   -0.1300
     11 C11        -8.4265    0.3945   58.2140 C.3     1  ZINC000590699876   -0.1300
     12 C12        -9.9279    0.6759   57.9951 C.3     1  ZINC000590699876    0.1200
     13 H13       -10.0822    1.7383   57.8064 H       1  ZINC000590699876    0.1000
     14 C14       -10.4357   -0.1308   56.8279 C.2     1  ZINC000590699876    0.5100
     15 O15       -11.0324   -1.1687   57.0219 O.2     1  ZINC000590699876   -0.5200
     16 N16       -10.2268    0.3011   55.5684 N.am    1  ZINC000590699876   -0.6100
     17 C17        -9.4988    1.5529   55.3106 C.3     1  ZINC000590699876    0.1000
     18 C18        -8.3880    1.2692   54.2938 C.3     1  ZINC000590699876    0.0400
     19 N19        -8.9684    0.6319   53.1043 N.3     1  ZINC000590699876   -0.5200
     20 C20        -7.9679    0.4997   52.0368 C.3     1  ZINC000590699876    0.0400
     21 C21        -7.8041    1.8232   51.3351 C.2     1  ZINC000590699876    0.5200
     22 O22        -8.5239    2.7557   51.6236 O.2     1  ZINC000590699876   -0.5100
     23 N23        -6.8576    1.9707   50.3870 N.am    1  ZINC000590699876   -0.6100
     24 C24        -5.9780    0.8504   50.0266 C.3     1  ZINC000590699876    0.1100
     25 C25        -4.5214    1.3104   50.1421 C.3     1  ZINC000590699876   -0.1400
     26 C26        -4.3186    2.5671   49.2925 C.3     1  ZINC000590699876   -0.1200
     27 C27        -5.2217    3.6877   49.8128 C.3     1  ZINC000590699876   -0.1300
     28 C28        -6.6900    3.2531   49.6897 C.3     1  ZINC000590699876    0.1400
     29 H29        -6.9505    3.1397   48.6374 H       1  ZINC000590699876    0.0700
     30 C30        -7.5929    4.3088   50.3309 C.3     1  ZINC000590699876   -0.1400
     31 C31        -9.5618   -0.6708   53.4338 C.3     1  ZINC000590699876    0.0400
     32 C32       -10.7154   -0.4699   54.4152 C.3     1  ZINC000590699876    0.1200
     33 H33       -15.9214   -3.0449   59.9045 H       1  ZINC000590699876    0.1000
     34 H34       -14.3080   -3.5961   59.3934 H       1  ZINC000590699876    0.0900
     35 H35       -14.7415   -3.5919   61.1197 H       1  ZINC000590699876    0.0900
     36 H36       -12.4589   -2.2017   60.7708 H       1  ZINC000590699876    0.4100
     37 H37       -13.3639    0.5858   61.0219 H       1  ZINC000590699876    0.1000
     38 H38       -11.7759   -0.0474   61.5175 H       1  ZINC000590699876    0.1000
     39 H39        -9.3340    0.5999   60.8719 H       1  ZINC000590699876    0.0800
     40 H40       -10.0447   -1.0401   60.7693 H       1  ZINC000590699876    0.0800
     41 H41        -7.5094   -0.6402   59.9158 H       1  ZINC000590699876    0.0900
     42 H42        -8.6092   -1.6678   58.9363 H       1  ZINC000590699876    0.0800
     43 H43        -7.9048    1.2949   58.5382 H       1  ZINC000590699876    0.1000
     44 H44        -7.9757   -0.0080   57.3069 H       1  ZINC000590699876    0.0900
     45 H45       -10.1837    2.2981   54.9063 H       1  ZINC000590699876    0.0800
     46 H46        -9.0607    1.9195   56.2389 H       1  ZINC000590699876    0.0900
     47 H47        -7.9091    2.2057   54.0076 H       1  ZINC000590699876    0.0900
     48 H48        -7.6486    0.6035   54.7390 H       1  ZINC000590699876    0.0400
     49 H49        -7.0139    0.1968   52.4685 H       1  ZINC000590699876    0.1000
     50 H50        -8.2979   -0.2529   51.3207 H       1  ZINC000590699876    0.0600
     51 H51        -6.1525    0.0158   50.7056 H       1  ZINC000590699876    0.0800
     52 H52        -6.1831    0.5397   49.0022 H       1  ZINC000590699876    0.0700
     53 H53        -4.2921    1.5346   51.1838 H       1  ZINC000590699876    0.0700
     54 H54        -3.8609    0.5198   49.7856 H       1  ZINC000590699876    0.0800
     55 H55        -3.2770    2.8824   49.3532 H       1  ZINC000590699876    0.0700
     56 H56        -4.5717    2.3488   48.2551 H       1  ZINC000590699876    0.0600
     57 H57        -4.9858    3.8896   50.8577 H       1  ZINC000590699876    0.0700
     58 H58        -5.0596    4.5893   49.2220 H       1  ZINC000590699876    0.0700
     59 H59        -7.4095    5.2762   49.8631 H       1  ZINC000590699876    0.0400
     60 H60        -8.6367    4.0288   50.1891 H       1  ZINC000590699876    0.0700
     61 H61        -7.3756    4.3738   51.3970 H       1  ZINC000590699876    0.0700
     62 H62        -9.9344   -1.1414   52.5239 H       1  ZINC000590699876    0.1100
     63 H63        -8.8061   -1.3096   53.8910 H       1  ZINC000590699876    0.0300
     64 H64       -11.0840   -1.4393   54.7504 H       1  ZINC000590699876    0.0900
     65 H65       -11.5191    0.0817   53.9275 H       1  ZINC000590699876    0.0800
@<TRIPOS>BOND
     1     1     2    1
     2     1    33    1
     3     1    34    1
     4     1    35    1
     5     2     3    2
     6     2     4   am
     7     4     5    1
     8     4    36    1
     9     5     6    1
    10     5    37    1
    11     5    38    1
    12     6     7    2
    13     6     8   am
    14     8    12    1
    15     8     9    1
    16     9    10    1
    17     9    39    1
    18     9    40    1
    19    10    11    1
    20    10    41    1
    21    10    42    1
    22    11    12    1
    23    11    43    1
    24    11    44    1
    25    12    13    1
    26    12    14    1
    27    14    15    2
    28    14    16   am
    29    16    32    1
    30    16    17    1
    31    17    18    1
    32    17    45    1
    33    17    46    1
    34    18    19    1
    35    18    47    1
    36    18    48    1
    37    19    20    1
    38    19    31    1
    39    20    21    1
    40    20    49    1
    41    20    50    1
    42    21    22    2
    43    21    23   am
    44    23    28    1
    45    23    24    1
    46    24    25    1
    47    24    51    1
    48    24    52    1
    49    25    26    1
    50    25    53    1
    51    25    54    1
    52    26    27    1
    53    26    55    1
    54    26    56    1
    55    27    28    1
    56    27    57    1
    57    27    58    1
    58    28    29    1
    59    28    30    1
    60    30    59    1
    61    30    60    1
    62    30    61    1
    63    31    32    1
    64    31    62    1
    65    31    63    1
    66    32    64    1
    67    32    65    1
@<TRIPOS>SUBSTRUCTURE
     1 ZINC000590699876        1 TEMP              0 ****  ****    0 ROOT


##########                                Name:    ZINC001127302705
##########                DOCK_Rotatable_Bonds:                   9
##########                         Heavy_Atoms:                  28
##########                    Molecular_Weight:             398.892
##########                DOCK_Rotatable_Bonds:                   9
##########                       Formal_Charge:          -0.0200002
##########                     HBond_Acceptors:                   7
##########                        HBond_Donors:                   1
##########                         Heavy_Atoms:                  28
##########                          Grid_Score:          -34.979527
##########                     Grid_vdw_energy:          -33.686504
##########                      Grid_es_energy:           -1.293022
##########           Internal_energy_repulsive:           26.878376

@<TRIPOS>MOLECULE
ZINC001127302705
 51 53 1 0 0
SMALL
USER_CHARGES


@<TRIPOS>ATOM
      1 C1         -6.1965    0.5731   50.0006 C.3     1  ZINC001127302705   -0.1500
      2 C2         -5.6319    1.4224   51.1413 C.3     1  ZINC001127302705   -0.1400
      3 C3         -5.5674    2.8868   50.7031 C.3     1  ZINC001127302705    0.1800
      4 C4         -5.2787    3.7705   51.9183 C.3     1  ZINC001127302705   -0.1600
      5 C5         -4.4530    3.0613   49.6693 C.3     1  ZINC001127302705    0.0700
      6 O6         -3.4061    2.1257   49.9352 O.3     1  ZINC001127302705   -0.2800
      7 C7         -2.3052    2.1920   49.1446 C.ar    1  ZINC001127302705    0.3400
      8 N8         -2.3838    1.8154   47.8796 N.ar    1  ZINC001127302705   -0.5300
      9 C9         -1.3379    1.8641   47.0760 C.ar    1  ZINC001127302705    0.1400
     10 C10        -0.1150    2.3133   47.5320 C.ar    1  ZINC001127302705   -0.2000
     11 C11         0.0102    2.7182   48.8540 C.ar    1  ZINC001127302705   -0.0300
     12 C12        -1.1067    2.6607   49.6706 C.ar    1  ZINC001127302705   -0.1100
     13 Cl13       -1.0083    3.1544   51.3320 Cl      1  ZINC001127302705   -0.0400
     14 N14        -6.8491    3.2760   50.1098 N.am    1  ZINC001127302705   -0.7100
     15 C15        -6.9867    4.4893   49.5390 C.2     1  ZINC001127302705    0.6200
     16 O16        -6.0468    5.2600   49.5153 O.2     1  ZINC001127302705   -0.5200
     17 C17        -8.2794    4.8824   48.9424 C.2     1  ZINC001127302705   -0.0200
     18 N18        -9.3887    4.1704   48.9349 N.2     1  ZINC001127302705   -0.2500
     19 N19       -10.3220    4.8144   48.3310 N.pl3   1  ZINC001127302705   -0.2800
     20 C20       -11.6883    4.3233   48.1364 C.3     1  ZINC001127302705    0.1600
     21 C21       -12.0876    3.4700   49.3126 C.ar    1  ZINC001127302705   -0.1200
     22 C22       -12.8306    2.3216   49.1130 C.ar    1  ZINC001127302705   -0.1000
     23 C23       -13.1968    1.5390   50.1919 C.ar    1  ZINC001127302705   -0.1200
     24 C24       -12.8197    1.9045   51.4706 C.ar    1  ZINC001127302705   -0.1100
     25 C25       -12.0759    3.0525   51.6703 C.ar    1  ZINC001127302705   -0.1200
     26 C26       -11.7060    3.8328   50.5908 C.ar    1  ZINC001127302705   -0.0800
     27 C27        -9.8623    6.0093   47.9015 C.2     1  ZINC001127302705   -0.0200
     28 C28        -8.5643    6.0975   48.2755 C.2     1  ZINC001127302705   -0.1800
     29 H29        -5.5509    0.6629   49.1270 H       1  ZINC001127302705    0.0500
     30 H30        -6.2425   -0.4701   50.3128 H       1  ZINC001127302705    0.0600
     31 H31        -7.1982    0.9217   49.7495 H       1  ZINC001127302705    0.0500
     32 H32        -6.2776    1.3327   52.0150 H       1  ZINC001127302705    0.0900
     33 H33        -4.6302    1.0737   51.3924 H       1  ZINC001127302705    0.0800
     34 H34        -4.3250    3.4809   52.3598 H       1  ZINC001127302705    0.0700
     35 H35        -5.2327    4.8138   51.6061 H       1  ZINC001127302705    0.0500
     36 H36        -6.0726    3.6463   52.6547 H       1  ZINC001127302705    0.0800
     37 H37        -4.8529    2.8850   48.6708 H       1  ZINC001127302705    0.0800
     38 H38        -4.0578    4.0753   49.7288 H       1  ZINC001127302705    0.0700
     39 H39        -1.4403    1.5480   46.0483 H       1  ZINC001127302705    0.1700
     40 H40         0.7356    2.3491   46.8675 H       1  ZINC001127302705    0.1500
     41 H41         0.9558    3.0738   49.2358 H       1  ZINC001127302705    0.1500
     42 H42        -7.5986    2.6607   50.1276 H       1  ZINC001127302705    0.4100
     43 H43       -12.3703    5.1694   48.0532 H       1  ZINC001127302705    0.1000
     44 H44       -11.7342    3.7286   47.2240 H       1  ZINC001127302705    0.1100
     45 H45       -13.1253    2.0360   48.1140 H       1  ZINC001127302705    0.1200
     46 H46       -13.7779    0.6420   50.0359 H       1  ZINC001127302705    0.1300
     47 H47       -13.1064    1.2934   52.3137 H       1  ZINC001127302705    0.1200
     48 H48       -11.7815    3.3382   52.6692 H       1  ZINC001127302705    0.1300
     49 H49       -11.1249    4.7296   50.7468 H       1  ZINC001127302705    0.1300
     50 H50       -10.4263    6.7572   47.3641 H       1  ZINC001127302705    0.1800
     51 H51        -7.8867    6.9192   48.0962 H       1  ZINC001127302705    0.1600
@<TRIPOS>BOND
     1     1     2    1
     2     1    29    1
     3     1    30    1
     4     1    31    1
     5     2     3    1
     6     2    32    1
     7     2    33    1
     8     3     4    1
     9     3     5    1
    10     3    14    1
    11     4    34    1
    12     4    35    1
    13     4    36    1
    14     5     6    1
    15     5    37    1
    16     5    38    1
    17     6     7    1
    18     7    12   ar
    19     7     8   ar
    20     8     9   ar
    21     9    10   ar
    22     9    39    1
    23    10    11   ar
    24    10    40    1
    25    11    12   ar
    26    11    41    1
    27    12    13    1
    28    14    15   am
    29    14    42    1
    30    15    16    2
    31    15    17    1
    32    17    28    1
    33    17    18    2
    34    18    19    1
    35    19    20    1
    36    19    27    1
    37    20    21    1
    38    20    43    1
    39    20    44    1
    40    21    26   ar
    41    21    22   ar
    42    22    23   ar
    43    22    45    1
    44    23    24   ar
    45    23    46    1
    46    24    25   ar
    47    24    47    1
    48    25    26   ar
    49    25    48    1
    50    26    49    1
    51    27    28    2
    52    27    50    1
    53    28    51    1
@<TRIPOS>SUBSTRUCTURE
     1 ZINC001127302705        1 TEMP              0 ****  ****    0 ROOT


##########                                Name:    ZINC001109848453
##########                DOCK_Rotatable_Bonds:                   8
##########                         Heavy_Atoms:                  24
##########                    Molecular_Weight:             328.337
##########                DOCK_Rotatable_Bonds:                   8
##########                       Formal_Charge:          0.00999966
##########                     HBond_Acceptors:                  11
##########                        HBond_Donors:                   2
##########                         Heavy_Atoms:                  24
##########                          Grid_Score:          -34.897293
##########                     Grid_vdw_energy:          -33.412041
##########                      Grid_es_energy:           -1.485252
##########           Internal_energy_repulsive:            5.584828

@<TRIPOS>MOLECULE
ZINC001109848453
 40 43 1 0 0
SMALL
USER_CHARGES


@<TRIPOS>ATOM
      1 O1         -6.9540    4.1286   51.0662 O.2     1  ZINC001109848453   -0.5000
      2 C2         -7.2507    3.7984   49.9375 C.2     1  ZINC001109848453    0.5000
      3 C3         -8.1137    4.6986   49.0914 C.3     1  ZINC001109848453    0.1100
      4 N4         -9.5238    4.3615   49.3011 N.pl3   1  ZINC001109848453   -0.3700
      5 C5        -10.5161    4.4496   48.3985 C.2     1  ZINC001109848453    0.2600
      6 N6        -11.6239    4.0569   48.9734 N.2     1  ZINC001109848453   -0.5400
      7 C7        -11.3796    3.7120   50.2370 C.2     1  ZINC001109848453    0.2000
      8 N8        -10.1065    3.8764   50.4833 N.2     1  ZINC001109848453   -0.2900
      9 N9         -6.8040    2.6291   49.4379 N.am    1  ZINC001109848453   -0.7300
     10 C10        -5.9651    1.7540   50.2604 C.3     1  ZINC001109848453    0.1700
     11 H11        -5.5861    2.3130   51.1160 H       1  ZINC001109848453    0.1000
     12 C12        -4.7901    1.2414   49.4251 C.3     1  ZINC001109848453    0.1200
     13 N13        -4.1198    2.3728   48.7794 N.pl3   1  ZINC001109848453   -0.6800
     14 C14        -2.8165    2.6929   49.1219 C.2     1  ZINC001109848453    0.4900
     15 N15        -2.5552    3.2722   50.2777 N.2     1  ZINC001109848453   -0.5300
     16 C16        -1.3043    3.5868   50.6234 C.2     1  ZINC001109848453    0.1400
     17 C17        -0.2620    3.3263   49.8075 C.2     1  ZINC001109848453   -0.0500
     18 N18        -0.4751    2.7270   48.5973 N.pl3   1  ZINC001109848453   -0.1800
     19 N19         0.2902    2.3619   47.6307 N.2     1  ZINC001109848453   -0.1000
     20 N20        -0.4247    1.8339   46.6986 N.2     1  ZINC001109848453   -0.0400
     21 N21        -1.6696    1.8439   47.0378 N.2     1  ZINC001109848453   -0.2600
     22 C22        -1.7526    2.3960   48.2378 C.2     1  ZINC001109848453    0.1000
     23 C23        -6.7958    0.5676   50.7540 C.3     1  ZINC001109848453   -0.1800
     24 C24        -6.6328    0.1510   52.2171 C.3     1  ZINC001109848453   -0.1700
     25 C25        -7.9114    0.8564   51.7604 C.3     1  ZINC001109848453   -0.1700
     26 H26        -7.9425    5.7373   49.3745 H       1  ZINC001109848453    0.1300
     27 H27        -7.8600    4.5621   48.0401 H       1  ZINC001109848453    0.1200
     28 H28       -10.4166    4.7863   47.3772 H       1  ZINC001109848453    0.2200
     29 H29       -12.1138    3.3512   50.9422 H       1  ZINC001109848453    0.2200
     30 H30        -7.0381    2.3669   48.5338 H       1  ZINC001109848453    0.4000
     31 H31        -4.0836    0.7217   50.0723 H       1  ZINC001109848453    0.1000
     32 H32        -5.1584    0.5543   48.6633 H       1  ZINC001109848453    0.0900
     33 H33        -4.5888    2.8978   48.1121 H       1  ZINC001109848453    0.4200
     34 H34        -1.1230    4.0606   51.5769 H       1  ZINC001109848453    0.2000
     35 H35         0.7403    3.5912   50.1100 H       1  ZINC001109848453    0.1900
     36 H36        -6.9699   -0.2212   50.0221 H       1  ZINC001109848453    0.1100
     37 H37        -6.6995   -0.9121   52.4482 H       1  ZINC001109848453    0.1000
     38 H38        -5.9338    0.7221   52.8281 H       1  ZINC001109848453    0.1000
     39 H39        -8.0535    1.8915   52.0709 H       1  ZINC001109848453    0.1200
     40 H40        -8.8193    0.2574   51.6910 H       1  ZINC001109848453    0.0900
@<TRIPOS>BOND
     1     1     2    2
     2     2     3    1
     3     2     9   am
     4     3     4    1
     5     3    26    1
     6     3    27    1
     7     4     8    1
     8     4     5    1
     9     5     6    2
    10     5    28    1
    11     6     7    1
    12     7     8    2
    13     7    29    1
    14     9    10    1
    15     9    30    1
    16    10    11    1
    17    10    12    1
    18    10    23    1
    19    12    13    1
    20    12    31    1
    21    12    32    1
    22    13    14    1
    23    13    33    1
    24    14    22    1
    25    14    15    2
    26    15    16    1
    27    16    17    2
    28    16    34    1
    29    17    18    1
    30    17    35    1
    31    18    22    1
    32    18    19    1
    33    19    20    2
    34    20    21    1
    35    21    22    2
    36    23    25    1
    37    23    24    1
    38    23    36    1
    39    24    25    1
    40    24    37    1
    41    24    38    1
    42    25    39    1
    43    25    40    1
@<TRIPOS>SUBSTRUCTURE
     1 ZINC001109848453        1 TEMP              0 ****  ****    0 ROOT


##########                                Name:    ZINC000465642058
##########                DOCK_Rotatable_Bonds:                  10
##########                         Heavy_Atoms:                  31
##########                    Molecular_Weight:             420.511
##########                DOCK_Rotatable_Bonds:                  10
##########                       Formal_Charge:          1.2666e-07
##########                     HBond_Acceptors:                   7
##########                        HBond_Donors:                   2
##########                         Heavy_Atoms:                  31
##########                          Grid_Score:          -34.894249
##########                     Grid_vdw_energy:          -33.938000
##########                      Grid_es_energy:           -0.956247
##########           Internal_energy_repulsive:           16.917591

@<TRIPOS>MOLECULE
ZINC000465642058
 59 62 1 0 0
SMALL
USER_CHARGES


@<TRIPOS>ATOM
      1 C1         -0.9215    5.1551   52.8724 C.3     1  ZINC000465642058   -0.1500
      2 C2         -2.0969    4.1774   52.9341 C.3     1  ZINC000465642058    0.0500
      3 O3         -2.8678    4.2831   51.7356 O.3     1  ZINC000465642058   -0.3000
      4 C4         -3.7466    3.2782   51.4762 C.ar    1  ZINC000465642058    0.1200
      5 C5         -4.7514    2.9784   52.3852 C.ar    1  ZINC000465642058   -0.1600
      6 C6         -5.6397    1.9605   52.1169 C.ar    1  ZINC000465642058   -0.1300
      7 C7         -5.5492    1.2285   50.9405 C.ar    1  ZINC000465642058    0.0700
      8 C8         -4.5359    1.5308   50.0342 C.ar    1  ZINC000465642058   -0.0700
      9 C9         -3.6469    2.5513   50.2990 C.ar    1  ZINC000465642058   -0.1100
     10 C10        -2.5547    2.8700   49.3107 C.3     1  ZINC000465642058    0.1900
     11 N11        -1.2593    2.4780   49.8713 N.am    1  ZINC000465642058   -0.7300
     12 C12        -0.1322    2.6600   49.1551 C.2     1  ZINC000465642058    0.7100
     13 O13        -0.1908    3.1481   48.0430 O.2     1  ZINC000465642058   -0.5900
     14 N14         1.0598    2.3009   49.6715 N.am    1  ZINC000465642058   -0.6200
     15 C15         2.2847    2.4970   48.8921 C.3     1  ZINC000465642058    0.1900
     16 C16         2.3334    1.4907   47.7714 C.2     1  ZINC000465642058    0.0500
     17 N17         1.8158    0.2893   47.7959 N.2     1  ZINC000465642058   -0.2700
     18 N18         2.0764   -0.3248   46.5641 N.pl3   1  ZINC000465642058   -0.4700
     19 C19         2.7670    0.5491   45.8022 C.2     1  ZINC000465642058    0.0600
     20 C20         2.9346    1.6820   46.5229 C.2     1  ZINC000465642058   -0.2600
     21 C21         1.1306    1.7143   51.0121 C.3     1  ZINC000465642058    0.1700
     22 C22         2.3427    0.8239   51.1075 C.ar    1  ZINC000465642058   -0.1100
     23 C23         2.2456   -0.5139   50.7732 C.ar    1  ZINC000465642058   -0.0900
     24 C24         3.3574   -1.3306   50.8608 C.ar    1  ZINC000465642058   -0.1200
     25 C25         4.5665   -0.8094   51.2822 C.ar    1  ZINC000465642058   -0.1200
     26 C26         4.6637    0.5286   51.6155 C.ar    1  ZINC000465642058   -0.1300
     27 C27         3.5530    1.3463   51.5239 C.ar    1  ZINC000465642058   -0.1100
     28 O28        -6.5344    0.2902   50.8668 O.3     1  ZINC000465642058   -0.3000
     29 C29        -7.0602    0.0521   52.1836 C.3     1  ZINC000465642058    0.0800
     30 H30        -6.5167   -0.7539   52.6765 H       1  ZINC000465642058    0.0900
     31 C31        -8.5558   -0.2646   52.1208 C.3     1  ZINC000465642058   -0.1500
     32 C32        -6.8109    1.4000   52.9006 C.3     1  ZINC000465642058   -0.1100
     33 H33        -1.3001    6.1724   52.7723 H       1  ZINC000465642058    0.0700
     34 H34        -0.3335    5.0744   53.7865 H       1  ZINC000465642058    0.0800
     35 H35        -0.2939    4.9149   52.0142 H       1  ZINC000465642058    0.0700
     36 H36        -1.7183    3.1601   53.0340 H       1  ZINC000465642058    0.0600
     37 H37        -2.7245    4.4175   53.7923 H       1  ZINC000465642058    0.0600
     38 H38        -4.8367    3.5425   53.3023 H       1  ZINC000465642058    0.1300
     39 H39        -4.4485    0.9661   49.1177 H       1  ZINC000465642058    0.1400
     40 H40        -2.7310    2.3220   48.3852 H       1  ZINC000465642058    0.0700
     41 H41        -2.5525    3.9403   49.1044 H       1  ZINC000465642058    0.0800
     42 H42        -1.2127    2.0875   50.7581 H       1  ZINC000465642058    0.4000
     43 H43         2.2934    3.5045   48.4764 H       1  ZINC000465642058    0.1000
     44 H44         3.1520    2.3631   49.5386 H       1  ZINC000465642058    0.0900
     45 H45         1.8079   -1.2201   46.3047 H       1  ZINC000465642058    0.4400
     46 H46         3.1191    0.3767   44.7958 H       1  ZINC000465642058    0.1800
     47 H47         3.4474    2.5740   46.1946 H       1  ZINC000465642058    0.1500
     48 H48         1.2049    2.5099   51.7534 H       1  ZINC000465642058    0.0900
     49 H49         0.2321    1.1262   51.1993 H       1  ZINC000465642058    0.0900
     50 H50         1.3010   -0.9211   50.4441 H       1  ZINC000465642058    0.1300
     51 H51         3.2814   -2.3760   50.6003 H       1  ZINC000465642058    0.1200
     52 H52         5.4349   -1.4476   51.3511 H       1  ZINC000465642058    0.1200
     53 H53         5.6082    0.9358   51.9450 H       1  ZINC000465642058    0.1200
     54 H54         3.6289    2.3916   51.7843 H       1  ZINC000465642058    0.1200
     55 H55        -8.7112   -1.1699   51.5341 H       1  ZINC000465642058    0.0700
     56 H56        -8.9378   -0.4158   53.1305 H       1  ZINC000465642058    0.0800
     57 H57        -9.0838    0.5665   51.6532 H       1  ZINC000465642058    0.0700
     58 H58        -6.5409    1.2417   53.9447 H       1  ZINC000465642058    0.0900
     59 H59        -7.6812    2.0512   52.8194 H       1  ZINC000465642058    0.1000
@<TRIPOS>BOND
     1     1     2    1
     2     1    33    1
     3     1    34    1
     4     1    35    1
     5     2     3    1
     6     2    36    1
     7     2    37    1
     8     3     4    1
     9     4     9   ar
    10     4     5   ar
    11     5     6   ar
    12     5    38    1
    13     6    32    1
    14     6     7   ar
    15     7     8   ar
    16     7    28    1
    17     8     9   ar
    18     8    39    1
    19     9    10    1
    20    10    11    1
    21    10    40    1
    22    10    41    1
    23    11    12   am
    24    11    42    1
    25    12    13    2
    26    12    14   am
    27    14    15    1
    28    14    21    1
    29    15    16    1
    30    15    43    1
    31    15    44    1
    32    16    20    1
    33    16    17    2
    34    17    18    1
    35    18    19    1
    36    18    45    1
    37    19    20    2
    38    19    46    1
    39    20    47    1
    40    21    22    1
    41    21    48    1
    42    21    49    1
    43    22    27   ar
    44    22    23   ar
    45    23    24   ar
    46    23    50    1
    47    24    25   ar
    48    24    51    1
    49    25    26   ar
    50    25    52    1
    51    26    27   ar
    52    26    53    1
    53    27    54    1
    54    28    29    1
    55    29    30    1
    56    29    31    1
    57    29    32    1
    58    31    55    1
    59    31    56    1
    60    31    57    1
    61    32    58    1
    62    32    59    1
@<TRIPOS>SUBSTRUCTURE
     1 ZINC000465642058        1 TEMP              0 ****  ****    0 ROOT


##########                                Name:    ZINC000504243286
##########                DOCK_Rotatable_Bonds:                   7
##########                         Heavy_Atoms:                  29
##########                    Molecular_Weight:             408.337
##########                DOCK_Rotatable_Bonds:                   7
##########                       Formal_Charge:           0.0299994
##########                     HBond_Acceptors:                  11
##########                        HBond_Donors:                   3
##########                         Heavy_Atoms:                  29
##########                          Grid_Score:          -34.890827
##########                     Grid_vdw_energy:          -33.070316
##########                      Grid_es_energy:           -1.820513
##########           Internal_energy_repulsive:           12.887197

@<TRIPOS>MOLECULE
ZINC000504243286
 44 46 1 0 0
SMALL
USER_CHARGES


@<TRIPOS>ATOM
      1 O1         -4.5699    0.2442   49.8612 O.2     1  ZINC000504243286   -0.5200
      2 C2         -5.1875    1.2868   49.9137 C.2     1  ZINC000504243286    0.5200
      3 C3         -6.6470    1.2799   50.2893 C.3     1  ZINC000504243286   -0.1600
      4 C4         -6.9611    0.0155   51.0916 C.3     1  ZINC000504243286    0.1300
      5 N5         -8.1300    0.2545   51.9419 N.pl3   1  ZINC000504243286   -0.7200
      6 C6         -7.9609    0.7345   53.2426 C.ar    1  ZINC000504243286    0.3100
      7 C7         -6.7465    1.2872   53.6282 C.ar    1  ZINC000504243286   -0.1900
      8 C8         -6.5828    1.7613   54.9152 C.ar    1  ZINC000504243286    0.0200
      9 C9         -7.6264    1.6863   55.8192 C.ar    1  ZINC000504243286   -0.2400
     10 C10        -7.4443    2.2051   57.2222 C.3     1  ZINC000504243286    0.5200
     11 F11        -6.4204    3.1584   57.2378 F       1  ZINC000504243286   -0.1700
     12 F12        -8.6356    2.7932   57.6603 F       1  ZINC000504243286   -0.1700
     13 F13        -7.1077    1.1454   58.0713 F       1  ZINC000504243286   -0.1700
     14 C14        -8.8370    1.1366   55.4384 C.ar    1  ZINC000504243286    0.0400
     15 C15        -9.0090    0.6655   54.1519 C.ar    1  ZINC000504243286   -0.1200
     16 N16       -10.3050    0.0775   53.7454 N.pl3   1  ZINC000504243286    0.0400
     17 O17       -10.7393    0.2764   52.6250 O.2     1  ZINC000504243286   -0.1700
     18 O18       -10.9372   -0.6054   54.5312 O.2     1  ZINC000504243286   -0.1400
     19 N19        -4.5672    2.4520   49.6417 N.am    1  ZINC000504243286   -0.6700
     20 C20        -3.2106    2.4584   49.2926 C.ar    1  ZINC000504243286    0.1200
     21 C21        -2.8253    2.1881   47.9863 C.ar    1  ZINC000504243286   -0.1000
     22 C22        -1.4906    2.1942   47.6394 C.ar    1  ZINC000504243286   -0.1200
     23 C23        -0.5179    2.4711   48.5979 C.ar    1  ZINC000504243286    0.1300
     24 N24         0.8738    2.5339   48.4932 N.am    1  ZINC000504243286   -0.6600
     25 C25         1.4586    2.8341   49.6650 C.2     1  ZINC000504243286    0.5300
     26 O26         2.6488    2.9536   49.8663 O.2     1  ZINC000504243286   -0.5000
     27 C27         0.3534    2.9955   50.6868 C.3     1  ZINC000504243286   -0.1200
     28 C28        -0.9132    2.7402   49.9026 C.ar    1  ZINC000504243286   -0.1200
     29 C29        -2.2441    2.7408   50.2511 C.ar    1  ZINC000504243286   -0.0600
     30 H30        -6.8707    2.1588   50.8939 H       1  ZINC000504243286    0.1100
     31 H31        -7.2550    1.2966   49.3848 H       1  ZINC000504243286    0.1100
     32 H32        -7.1717   -0.8062   50.4072 H       1  ZINC000504243286    0.0800
     33 H33        -6.1047   -0.2413   51.7151 H       1  ZINC000504243286    0.0900
     34 H34        -9.0212    0.0795   51.6015 H       1  ZINC000504243286    0.4100
     35 H35        -5.9309    1.3458   52.9227 H       1  ZINC000504243286    0.1600
     36 H36        -5.6386    2.1909   55.2159 H       1  ZINC000504243286    0.1600
     37 H37        -9.6501    1.0795   56.1470 H       1  ZINC000504243286    0.1600
     38 H38        -5.0601    3.2861   49.6877 H       1  ZINC000504243286    0.4200
     39 H39        -3.5740    1.9720   47.2387 H       1  ZINC000504243286    0.1400
     40 H40        -1.1982    1.9832   46.6214 H       1  ZINC000504243286    0.1300
     41 H41         1.3617    2.3788   47.6693 H       1  ZINC000504243286    0.4100
     42 H42         0.4621    2.2621   51.4858 H       1  ZINC000504243286    0.1300
     43 H43         0.3538    4.0070   51.0930 H       1  ZINC000504243286    0.1300
     44 H44        -2.5372    2.9567   51.2679 H       1  ZINC000504243286    0.1500
@<TRIPOS>BOND
     1     1     2    2
     2     2     3    1
     3     2    19   am
     4     3     4    1
     5     3    30    1
     6     3    31    1
     7     4     5    1
     8     4    32    1
     9     4    33    1
    10     5     6    1
    11     5    34    1
    12     6    15   ar
    13     6     7   ar
    14     7     8   ar
    15     7    35    1
    16     8     9   ar
    17     8    36    1
    18     9    10    1
    19     9    14   ar
    20    10    11    1
    21    10    12    1
    22    10    13    1
    23    14    15   ar
    24    14    37    1
    25    15    16    1
    26    16    17    2
    27    16    18    2
    28    19    20    1
    29    19    38    1
    30    20    29   ar
    31    20    21   ar
    32    21    22   ar
    33    21    39    1
    34    22    23   ar
    35    22    40    1
    36    23    28   ar
    37    23    24    1
    38    24    25   am
    39    24    41    1
    40    25    26    2
    41    25    27    1
    42    27    28    1
    43    27    42    1
    44    27    43    1
    45    28    29   ar
    46    29    44    1
@<TRIPOS>SUBSTRUCTURE
     1 ZINC000504243286        1 TEMP              0 ****  ****    0 ROOT


##########                                Name:    ZINC000373715094
##########                DOCK_Rotatable_Bonds:                   6
##########                         Heavy_Atoms:                  27
##########                    Molecular_Weight:             362.431
##########                DOCK_Rotatable_Bonds:                   6
##########                       Formal_Charge:           0.0299999
##########                     HBond_Acceptors:                   6
##########                        HBond_Donors:                   2
##########                         Heavy_Atoms:                  27
##########                          Grid_Score:          -34.885342
##########                     Grid_vdw_energy:          -34.163822
##########                      Grid_es_energy:           -0.721518
##########           Internal_energy_repulsive:            9.354897

@<TRIPOS>MOLECULE
ZINC000373715094
 49 52 1 0 0
SMALL
USER_CHARGES


@<TRIPOS>ATOM
      1 C1        -10.0335    2.9056   52.6201 C.3     1  ZINC000373715094    0.0900
      2 N2         -9.1388    1.7477   52.5472 N.am    1  ZINC000373715094   -0.6100
      3 C3         -9.5262    0.5112   52.1899 C.2     1  ZINC000373715094    0.5200
      4 O4        -10.6590    0.1973   51.8911 O.2     1  ZINC000373715094   -0.5200
      5 C5         -8.3437   -0.4320   52.2145 C.3     1  ZINC000373715094   -0.1600
      6 C6         -7.1128    0.5037   52.2348 C.3     1  ZINC000373715094   -0.1000
      7 H7         -6.3225    0.0950   52.8644 H       1  ZINC000373715094    0.1100
      8 C8         -6.5997    0.7646   50.8172 C.3     1  ZINC000373715094    0.1300
      9 N9         -5.4107    1.6182   50.8776 N.am    1  ZINC000373715094   -0.7300
     10 C10        -5.1633    2.5001   49.8887 C.2     1  ZINC000373715094    0.5200
     11 O11        -5.9257    2.5877   48.9496 O.2     1  ZINC000373715094   -0.5200
     12 C12        -3.9392    3.3769   49.9501 C.3     1  ZINC000373715094   -0.0600
     13 C13        -2.8972    2.8520   48.9963 C.2     1  ZINC000373715094    0.1200
     14 N14        -3.1259    2.1973   47.8939 N.2     1  ZINC000373715094   -0.2300
     15 N15        -1.9178    1.8710   47.2691 N.pl3   1  ZINC000373715094   -0.5100
     16 C16        -0.8793    2.3492   48.0247 C.ar    1  ZINC000373715094    0.1300
     17 C17         0.5063    2.3172   47.8904 C.ar    1  ZINC000373715094   -0.1400
     18 C18         1.2953    2.9017   48.8404 C.ar    1  ZINC000373715094   -0.0700
     19 C19         0.7329    3.5302   49.9443 C.ar    1  ZINC000373715094   -0.1600
     20 C20        -0.6221    3.5772   50.1023 C.ar    1  ZINC000373715094   -0.0400
     21 C21        -1.4516    2.9920   49.1398 C.ar    1  ZINC000373715094   -0.1600
     22 C22        -7.7031    1.7904   52.8488 C.3     1  ZINC000373715094    0.1800
     23 H23        -7.2440    2.6693   52.3963 H       1  ZINC000373715094    0.1000
     24 C24        -7.4906    1.8014   54.3407 C.ar    1  ZINC000373715094   -0.1000
     25 C25        -8.4104    1.1936   55.1744 C.ar    1  ZINC000373715094   -0.1000
     26 C26        -8.2153    1.2038   56.5429 C.ar    1  ZINC000373715094   -0.1200
     27 C27        -7.1001    1.8214   57.0776 C.ar    1  ZINC000373715094   -0.1100
     28 C28        -6.1798    2.4284   56.2437 C.ar    1  ZINC000373715094   -0.1200
     29 C29        -6.3726    2.4145   54.8750 C.ar    1  ZINC000373715094   -0.1100
     30 H30       -10.0551    3.4095   51.6538 H       1  ZINC000373715094    0.0600
     31 H31       -11.0387    2.5723   52.8786 H       1  ZINC000373715094    0.0800
     32 H32        -9.6725    3.5963   53.3821 H       1  ZINC000373715094    0.0700
     33 H33        -8.3676   -1.0505   53.1115 H       1  ZINC000373715094    0.1100
     34 H34        -8.3342   -1.0553   51.3203 H       1  ZINC000373715094    0.1100
     35 H35        -6.3431   -0.1830   50.3436 H       1  ZINC000373715094    0.0700
     36 H36        -7.3756    1.2628   50.2360 H       1  ZINC000373715094    0.0800
     37 H37        -4.8016    1.5489   51.6293 H       1  ZINC000373715094    0.4000
     38 H38        -4.2075    4.3956   49.6703 H       1  ZINC000373715094    0.1200
     39 H39        -3.5391    3.3719   50.9639 H       1  ZINC000373715094    0.1200
     40 H40        -1.8292    1.3840   46.4349 H       1  ZINC000373715094    0.4400
     41 H41         0.9563    1.8312   47.0373 H       1  ZINC000373715094    0.1300
     42 H42         2.3695    2.8744   48.7320 H       1  ZINC000373715094    0.1300
     43 H43         1.3739    3.9857   50.6847 H       1  ZINC000373715094    0.1300
     44 H44        -1.0516    4.0678   50.9634 H       1  ZINC000373715094    0.1300
     45 H45        -9.2816    0.7111   54.7567 H       1  ZINC000373715094    0.1200
     46 H46        -8.9344    0.7295   57.1944 H       1  ZINC000373715094    0.1200
     47 H47        -6.9481    1.8299   58.1468 H       1  ZINC000373715094    0.1200
     48 H48        -5.3088    2.9112   56.6615 H       1  ZINC000373715094    0.1300
     49 H49        -5.6536    2.8888   54.2235 H       1  ZINC000373715094    0.1300
@<TRIPOS>BOND
     1     1     2    1
     2     1    30    1
     3     1    31    1
     4     1    32    1
     5     2    22    1
     6     2     3   am
     7     3     4    2
     8     3     5    1
     9     5     6    1
    10     5    33    1
    11     5    34    1
    12     6     7    1
    13     6     8    1
    14     6    22    1
    15     8     9    1
    16     8    35    1
    17     8    36    1
    18     9    10   am
    19     9    37    1
    20    10    11    2
    21    10    12    1
    22    12    13    1
    23    12    38    1
    24    12    39    1
    25    13    21    1
    26    13    14    2
    27    14    15    1
    28    15    16    1
    29    15    40    1
    30    16    21   ar
    31    16    17   ar
    32    17    18   ar
    33    17    41    1
    34    18    19   ar
    35    18    42    1
    36    19    20   ar
    37    19    43    1
    38    20    21   ar
    39    20    44    1
    40    22    23    1
    41    22    24    1
    42    24    29   ar
    43    24    25   ar
    44    25    26   ar
    45    25    45    1
    46    26    27   ar
    47    26    46    1
    48    27    28   ar
    49    27    47    1
    50    28    29   ar
    51    28    48    1
    52    29    49    1
@<TRIPOS>SUBSTRUCTURE
     1 ZINC000373715094        1 TEMP              0 ****  ****    0 ROOT


##########                                Name:    ZINC000746432885
##########                DOCK_Rotatable_Bonds:                  11
##########                         Heavy_Atoms:                  31
##########                    Molecular_Weight:              419.44
##########                DOCK_Rotatable_Bonds:                  11
##########                       Formal_Charge:           0.0199995
##########                     HBond_Acceptors:                   9
##########                        HBond_Donors:                   2
##########                         Heavy_Atoms:                  31
##########                          Grid_Score:          -34.845711
##########                     Grid_vdw_energy:          -29.229694
##########                      Grid_es_energy:           -5.616018
##########           Internal_energy_repulsive:           19.023535

@<TRIPOS>MOLECULE
ZINC000746432885
 52 54 1 0 0
SMALL
USER_CHARGES


@<TRIPOS>ATOM
      1 C1         -8.0713    0.8387   58.6306 C.3     1  ZINC000746432885    0.0300
      2 O2         -7.0635    1.1737   57.6744 O.3     1  ZINC000746432885   -0.3200
      3 C3         -7.4511    1.9158   56.6039 C.ar    1  ZINC000746432885    0.1300
      4 C4         -8.7802    2.2867   56.4602 C.ar    1  ZINC000746432885   -0.2000
      5 C5         -9.1717    3.0409   55.3711 C.ar    1  ZINC000746432885   -0.0800
      6 C6         -8.2403    3.4258   54.4244 C.ar    1  ZINC000746432885   -0.1400
      7 C7         -6.9151    3.0574   54.5654 C.ar    1  ZINC000746432885   -0.0600
      8 C8         -5.9025    3.4789   53.5320 C.3     1  ZINC000746432885    0.2300
      9 N9         -4.5746    3.5440   54.1476 N.am    1  ZINC000746432885   -0.6900
     10 C10        -3.8977    4.7093   54.1680 C.2     1  ZINC000746432885    0.5200
     11 O11        -4.3888    5.7050   53.6777 O.2     1  ZINC000746432885   -0.5100
     12 C12        -2.5436    4.7752   54.7939 C.2     1  ZINC000746432885    0.5100
     13 O13        -1.7404    5.6039   54.4171 O.2     1  ZINC000746432885   -0.5100
     14 N14        -2.2130    3.9148   55.7772 N.am    1  ZINC000746432885   -0.6100
     15 C15        -0.9397    3.9778   56.3671 C.2     1  ZINC000746432885    0.0000
     16 C16        -0.1270    2.9221   56.6330 C.2     1  ZINC000746432885    0.0400
     17 N17         1.0018    3.4060   57.1988 N.pl3   1  ZINC000746432885   -0.3800
     18 C18         2.1500    2.6127   57.6441 C.3     1  ZINC000746432885    0.2500
     19 C19         2.9865    2.2657   56.4837 C.1     1  ZINC000746432885    0.1900
     20 N20         3.6319    1.9980   55.5881 N.1     1  ZINC000746432885   -0.3900
     21 N21         0.8809    4.7988   57.2838 N.2     1  ZINC000746432885   -0.2800
     22 C22        -0.2770    5.1434   56.7819 C.2     1  ZINC000746432885    0.0700
     23 C23        -5.8858    2.4764   52.4069 C.ar    1  ZINC000746432885   -0.0500
     24 C24        -6.4176    1.2146   52.5981 C.ar    1  ZINC000746432885   -0.1500
     25 C25        -6.4043    0.2928   51.5676 C.ar    1  ZINC000746432885   -0.0700
     26 C26        -5.8592    0.6306   50.3440 C.ar    1  ZINC000746432885   -0.2000
     27 C27        -5.3249    1.8960   50.1497 C.ar    1  ZINC000746432885    0.1300
     28 O28        -4.7881    2.2308   48.9469 O.3     1  ZINC000746432885   -0.3200
     29 C29        -3.3662    2.1545   48.8273 C.3     1  ZINC000746432885    0.0300
     30 C30        -5.3443    2.8209   51.1836 C.ar    1  ZINC000746432885   -0.1300
     31 C31        -6.5175    2.3084   55.6559 C.ar    1  ZINC000746432885   -0.1300
     32 H32        -8.8571    0.2615   58.1433 H       1  ZINC000746432885    0.0600
     33 H33        -7.6293    0.2465   59.4320 H       1  ZINC000746432885    0.1000
     34 H34        -8.4961    1.7525   59.0461 H       1  ZINC000746432885    0.0600
     35 H35        -9.5082    1.9857   57.1990 H       1  ZINC000746432885    0.1300
     36 H36       -10.2062    3.3301   55.2588 H       1  ZINC000746432885    0.1300
     37 H37        -8.5484    4.0148   53.5733 H       1  ZINC000746432885    0.1200
     38 H38        -6.1699    4.4603   53.1403 H       1  ZINC000746432885    0.1200
     39 H39        -4.1826    2.7484   54.5405 H       1  ZINC000746432885    0.4200
     40 H40        -2.8543    3.2518   56.0774 H       1  ZINC000746432885    0.4200
     41 H41        -0.3437    1.8838   56.4294 H       1  ZINC000746432885    0.1900
     42 H42         2.7381    3.1923   58.3556 H       1  ZINC000746432885    0.1300
     43 H43         1.7968    1.6996   58.1234 H       1  ZINC000746432885    0.1500
     44 H44        -0.6598    6.1504   56.7059 H       1  ZINC000746432885    0.2100
     45 H45        -6.8439    0.9484   53.5540 H       1  ZINC000746432885    0.1200
     46 H46        -6.8201   -0.6925   51.7196 H       1  ZINC000746432885    0.1300
     47 H47        -5.8487   -0.0900   49.5396 H       1  ZINC000746432885    0.1300
     48 H48        -3.0701    2.4472   47.8199 H       1  ZINC000746432885    0.1000
     49 H49        -2.9042    2.8256   49.5512 H       1  ZINC000746432885    0.0600
     50 H50        -3.0398    1.1324   49.0195 H       1  ZINC000746432885    0.0600
     51 H51        -4.9290    3.8067   51.0347 H       1  ZINC000746432885    0.1400
     52 H52        -5.4823    2.0207   55.7655 H       1  ZINC000746432885    0.1300
@<TRIPOS>BOND
     1     1     2    1
     2     1    32    1
     3     1    33    1
     4     1    34    1
     5     2     3    1
     6     3    31   ar
     7     3     4   ar
     8     4     5   ar
     9     4    35    1
    10     5     6   ar
    11     5    36    1
    12     6     7   ar
    13     6    37    1
    14     7     8    1
    15     7    31   ar
    16     8     9    1
    17     8    23    1
    18     8    38    1
    19     9    10   am
    20     9    39    1
    21    10    11    2
    22    10    12    1
    23    12    13    2
    24    12    14   am
    25    14    15    1
    26    14    40    1
    27    15    22    1
    28    15    16    2
    29    16    17    1
    30    16    41    1
    31    17    18    1
    32    17    21    1
    33    18    19    1
    34    18    42    1
    35    18    43    1
    36    19    20    3
    37    21    22    2
    38    22    44    1
    39    23    30   ar
    40    23    24   ar
    41    24    25   ar
    42    24    45    1
    43    25    26   ar
    44    25    46    1
    45    26    27   ar
    46    26    47    1
    47    27    28    1
    48    27    30   ar
    49    28    29    1
    50    29    48    1
    51    29    49    1
    52    29    50    1
    53    30    51    1
    54    31    52    1
@<TRIPOS>SUBSTRUCTURE
     1 ZINC000746432885        1 TEMP              0 ****  ****    0 ROOT


##########                                Name:    ZINC000603906271
##########                DOCK_Rotatable_Bonds:                   8
##########                         Heavy_Atoms:                  29
##########                    Molecular_Weight:             391.473
##########                DOCK_Rotatable_Bonds:                   8
##########                       Formal_Charge:           0.0499998
##########                     HBond_Acceptors:                   7
##########                        HBond_Donors:                   3
##########                         Heavy_Atoms:                  29
##########                          Grid_Score:          -34.837044
##########                     Grid_vdw_energy:          -34.411221
##########                      Grid_es_energy:           -0.425822
##########           Internal_energy_repulsive:           19.889456

@<TRIPOS>MOLECULE
ZINC000603906271
 54 56 1 0 0
SMALL
USER_CHARGES


@<TRIPOS>ATOM
      1 C1         -7.5613   -0.5244   51.5177 C.3     1  ZINC000603906271   -0.1600
      2 C2         -7.7970    0.8988   52.0274 C.3     1  ZINC000603906271    0.1300
      3 H3         -8.7453    1.2712   51.6397 H       1  ZINC000603906271    0.1200
      4 N4         -7.8369    0.8926   53.4919 N.am    1  ZINC000603906271   -0.7100
      5 C5         -8.9298    0.4354   54.1344 C.2     1  ZINC000603906271    0.5700
      6 O6         -9.8832    0.0296   53.4988 O.2     1  ZINC000603906271   -0.5300
      7 C7         -8.9694    0.4275   55.6123 C.ar    1  ZINC000603906271   -0.1400
      8 C8         -7.9740    1.0776   56.3434 C.ar    1  ZINC000603906271   -0.0800
      9 C9         -8.0169    1.0669   57.7223 C.ar    1  ZINC000603906271   -0.1200
     10 C10        -9.0435    0.4132   58.3805 C.ar    1  ZINC000603906271   -0.0400
     11 C11        -9.0837    0.4052   59.8869 C.3     1  ZINC000603906271   -0.0400
     12 C12        -9.3929    1.8143   60.3963 C.3     1  ZINC000603906271   -0.1400
     13 C13       -10.1718   -0.5593   60.3629 C.3     1  ZINC000603906271   -0.1500
     14 C14        -7.7273   -0.0476   60.4309 C.3     1  ZINC000603906271   -0.1400
     15 C15       -10.0336   -0.2328   57.6616 C.ar    1  ZINC000603906271   -0.1300
     16 C16       -10.0053   -0.2251   56.2823 C.ar    1  ZINC000603906271   -0.0500
     17 C17        -6.6773    1.7920   51.5590 C.2     1  ZINC000603906271    0.5100
     18 O18        -6.9290    2.8653   51.0531 O.2     1  ZINC000603906271   -0.5100
     19 N19        -5.3964    1.3984   51.7022 N.am    1  ZINC000603906271   -0.6700
     20 C20        -4.3567    2.2279   51.2672 C.ar    1  ZINC000603906271    0.1300
     21 C21        -4.0482    3.3837   51.9736 C.ar    1  ZINC000603906271   -0.1200
     22 C22        -3.0219    4.2055   51.5470 C.ar    1  ZINC000603906271   -0.1000
     23 C23        -2.2982    3.8827   50.4167 C.ar    1  ZINC000603906271   -0.0900
     24 C24        -2.6012    2.7253   49.7016 C.ar    1  ZINC000603906271    0.0000
     25 C25        -1.8244    2.3771   48.4859 C.2     1  ZINC000603906271    0.2700
     26 N26        -2.3303    1.9558   47.3476 N.2     1  ZINC000603906271   -0.3000
     27 N27        -1.2481    1.7471   46.4773 N.pl3   1  ZINC000603906271   -0.4800
     28 C28        -0.1369    2.0642   47.1660 C.2     1  ZINC000603906271    0.2700
     29 N29        -0.4919    2.4453   48.3645 N.2     1  ZINC000603906271   -0.5300
     30 C30        -3.6301    1.8935   50.1342 C.ar    1  ZINC000603906271   -0.0800
     31 H31        -6.6131   -0.8968   51.9053 H       1  ZINC000603906271    0.0700
     32 H32        -8.3713   -1.1705   51.8564 H       1  ZINC000603906271    0.0800
     33 H33        -7.5317   -0.5197   50.4280 H       1  ZINC000603906271    0.0700
     34 H34        -7.0766    1.2176   53.9991 H       1  ZINC000603906271    0.4100
     35 H35        -7.1717    1.5876   55.8310 H       1  ZINC000603906271    0.1300
     36 H36        -7.2473    1.5695   58.2894 H       1  ZINC000603906271    0.1300
     37 H37       -10.3592    2.1369   60.0088 H       1  ZINC000603906271    0.0600
     38 H38        -9.4220    1.8086   61.4860 H       1  ZINC000603906271    0.0600
     39 H39        -8.6177    2.5015   60.0572 H       1  ZINC000603906271    0.0600
     40 H40        -9.9516   -1.5633   60.0000 H       1  ZINC000603906271    0.0600
     41 H41       -10.2010   -0.5651   61.4525 H       1  ZINC000603906271    0.0600
     42 H42       -11.1382   -0.2368   59.9753 H       1  ZINC000603906271    0.0600
     43 H43        -6.9521    0.6396   60.0918 H       1  ZINC000603906271    0.0600
     44 H44        -7.7564   -0.0534   61.5205 H       1  ZINC000603906271    0.0600
     45 H45        -7.5070   -1.0515   60.0680 H       1  ZINC000603906271    0.0600
     46 H46       -10.8324   -0.7409   58.1814 H       1  ZINC000603906271    0.1400
     47 H47       -10.7790   -0.7294   55.7223 H       1  ZINC000603906271    0.1400
     48 H48        -5.1951    0.5400   52.1068 H       1  ZINC000603906271    0.4200
     49 H49        -4.6119    3.6410   52.8581 H       1  ZINC000603906271    0.1300
     50 H50        -2.7858    5.1030   52.0995 H       1  ZINC000603906271    0.1400
     51 H51        -1.4973    4.5274   50.0861 H       1  ZINC000603906271    0.1400
     52 H52        -1.2931    1.4353   45.5599 H       1  ZINC000603906271    0.4400
     53 H53         0.8749    2.0165   46.7911 H       1  ZINC000603906271    0.2300
     54 H54        -3.8685    0.9956   49.5835 H       1  ZINC000603906271    0.1500
@<TRIPOS>BOND
     1     1     2    1
     2     1    31    1
     3     1    32    1
     4     1    33    1
     5     2     3    1
     6     2     4    1
     7     2    17    1
     8     4     5   am
     9     4    34    1
    10     5     6    2
    11     5     7    1
    12     7    16   ar
    13     7     8   ar
    14     8     9   ar
    15     8    35    1
    16     9    10   ar
    17     9    36    1
    18    10    11    1
    19    10    15   ar
    20    11    12    1
    21    11    13    1
    22    11    14    1
    23    12    37    1
    24    12    38    1
    25    12    39    1
    26    13    40    1
    27    13    41    1
    28    13    42    1
    29    14    43    1
    30    14    44    1
    31    14    45    1
    32    15    16   ar
    33    15    46    1
    34    16    47    1
    35    17    18    2
    36    17    19   am
    37    19    20    1
    38    19    48    1
    39    20    30   ar
    40    20    21   ar
    41    21    22   ar
    42    21    49    1
    43    22    23   ar
    44    22    50    1
    45    23    24   ar
    46    23    51    1
    47    24    25    1
    48    24    30   ar
    49    25    29    1
    50    25    26    2
    51    26    27    1
    52    27    28    1
    53    27    52    1
    54    28    29    2
    55    28    53    1
    56    30    54    1
@<TRIPOS>SUBSTRUCTURE
     1 ZINC000603906271        1 TEMP              0 ****  ****    0 ROOT


##########                                Name:    ZINC001289410668
##########                DOCK_Rotatable_Bonds:                  11
##########                         Heavy_Atoms:                  26
##########                    Molecular_Weight:             362.515
##########                DOCK_Rotatable_Bonds:                  11
##########                       Formal_Charge:          -0.0400008
##########                     HBond_Acceptors:                   6
##########                        HBond_Donors:                   1
##########                         Heavy_Atoms:                  26
##########                          Grid_Score:          -34.797596
##########                     Grid_vdw_energy:          -33.860458
##########                      Grid_es_energy:           -0.937139
##########           Internal_energy_repulsive:           13.858076

@<TRIPOS>MOLECULE
ZINC001289410668
 60 61 1 0 0
SMALL
USER_CHARGES


@<TRIPOS>ATOM
      1 C1        -12.6234   -2.3927   57.5558 C.3     1  ZINC001289410668   -0.1500
      2 C2        -11.2708   -2.0891   58.2034 C.3     1  ZINC001289410668   -0.1300
      3 C3        -10.2707   -1.6714   57.1234 C.3     1  ZINC001289410668   -0.1200
      4 C4        -10.6420   -0.2849   56.5934 C.3     1  ZINC001289410668   -0.1200
      5 C5         -9.6174    0.1513   55.5443 C.3     1  ZINC001289410668   -0.1100
      6 C6         -9.8959   -0.5745   54.2266 C.3     1  ZINC001289410668   -0.1400
      7 C7         -9.3450    0.2350   53.0810 C.2     1  ZINC001289410668    0.5100
      8 O8        -10.0968    0.7025   52.2521 O.2     1  ZINC001289410668   -0.5300
      9 N9         -8.0168    0.4393   52.9777 N.am    1  ZINC001289410668   -0.7200
     10 C10        -7.4810    1.2247   51.8631 C.3     1  ZINC001289410668    0.1400
     11 H11        -8.2103    1.3027   51.0567 H       1  ZINC001289410668    0.1100
     12 C12        -6.1485    0.6238   51.3504 C.3     1  ZINC001289410668    0.0800
     13 N13        -5.4405    1.7552   50.7242 N.am    1  ZINC001289410668   -0.6200
     14 C14        -4.4953    1.6582   49.7683 C.2     1  ZINC001289410668    0.5100
     15 O15        -4.1611    0.5684   49.3543 O.2     1  ZINC001289410668   -0.5100
     16 C16        -3.8538    2.9041   49.2139 C.3     1  ZINC001289410668    0.0900
     17 N17        -2.6196    2.5462   48.5105 N.pl3   1  ZINC001289410668   -0.4500
     18 C18        -2.5209    2.0937   47.2224 C.2     1  ZINC001289410668   -0.0500
     19 C19        -1.2120    1.8885   46.9808 C.2     1  ZINC001289410668   -0.0200
     20 N20        -0.5302    2.2072   48.0909 N.2     1  ZINC001289410668   -0.4800
     21 C21        -1.3663    2.6068   49.0097 C.2     1  ZINC001289410668    0.2300
     22 C22        -0.9955    3.0530   50.4006 C.3     1  ZINC001289410668   -0.0100
     23 C23         0.3112    2.3775   50.8216 C.3     1  ZINC001289410668   -0.1400
     24 C24        -0.8128    4.5719   50.4172 C.3     1  ZINC001289410668   -0.1400
     25 C25        -5.9368    3.0069   51.3147 C.3     1  ZINC001289410668    0.1100
     26 C26        -7.0272    2.6296   52.3402 C.3     1  ZINC001289410668   -0.1100
     27 H27        -6.6096    2.5784   53.3458 H       1  ZINC001289410668    0.0900
     28 C28        -8.1873    3.6257   52.2881 C.3     1  ZINC001289410668   -0.1400
     29 H29       -13.3359   -2.6904   58.3251 H       1  ZINC001289410668    0.0500
     30 H30       -12.9901   -1.5020   57.0459 H       1  ZINC001289410668    0.0500
     31 H31       -12.5076   -3.2022   56.8350 H       1  ZINC001289410668    0.0500
     32 H32       -11.3865   -1.2797   58.9241 H       1  ZINC001289410668    0.0600
     33 H33       -10.9040   -2.9800   58.7132 H       1  ZINC001289410668    0.0600
     34 H34        -9.2678   -1.6409   57.5491 H       1  ZINC001289410668    0.0600
     35 H35       -10.2968   -2.3918   56.3059 H       1  ZINC001289410668    0.0600
     36 H36       -11.6326   -0.3226   56.1400 H       1  ZINC001289410668    0.0600
     37 H37       -10.6462    0.4296   57.4164 H       1  ZINC001289410668    0.0600
     38 H38        -9.6921    1.2277   55.3892 H       1  ZINC001289410668    0.0700
     39 H39        -8.6143   -0.0970   55.8909 H       1  ZINC001289410668    0.0700
     40 H40        -9.4173   -1.5536   54.2429 H       1  ZINC001289410668    0.1000
     41 H41       -10.9716   -0.6979   54.1000 H       1  ZINC001289410668    0.1000
     42 H42        -7.4157    0.0664   53.6413 H       1  ZINC001289410668    0.4000
     43 H43        -5.5670    0.2259   52.1821 H       1  ZINC001289410668    0.0800
     44 H44        -6.3425   -0.1564   50.6144 H       1  ZINC001289410668    0.0800
     45 H45        -4.5405    3.3882   48.5195 H       1  ZINC001289410668    0.1200
     46 H46        -3.6214    3.5873   50.0308 H       1  ZINC001289410668    0.1200
     47 H47        -3.3361    1.9317   46.5327 H       1  ZINC001289410668    0.1700
     48 H48        -0.7861    1.5302   46.0552 H       1  ZINC001289410668    0.1700
     49 H49        -1.7884    2.7747   51.0949 H       1  ZINC001289410668    0.0700
     50 H50         1.1041    2.6558   50.1272 H       1  ZINC001289410668    0.0700
     51 H51         0.5793    2.7002   51.8275 H       1  ZINC001289410668    0.0600
     52 H52         0.1810    1.2954   50.8097 H       1  ZINC001289410668    0.0500
     53 H53        -0.0199    4.8501   49.7229 H       1  ZINC001289410668    0.0700
     54 H54        -1.7437    5.0532   50.1173 H       1  ZINC001289410668    0.0600
     55 H55        -0.5447    4.8947   51.4231 H       1  ZINC001289410668    0.0600
     56 H56        -5.1217    3.5295   51.8150 H       1  ZINC001289410668    0.0800
     57 H57        -6.3636    3.6400   50.5368 H       1  ZINC001289410668    0.0800
     58 H58        -8.6093    3.6397   51.2831 H       1  ZINC001289410668    0.0600
     59 H59        -8.9558    3.3261   53.0007 H       1  ZINC001289410668    0.0600
     60 H60        -7.8233    4.6210   52.5432 H       1  ZINC001289410668    0.0700
@<TRIPOS>BOND
     1     1     2    1
     2     1    29    1
     3     1    30    1
     4     1    31    1
     5     2     3    1
     6     2    32    1
     7     2    33    1
     8     3     4    1
     9     3    34    1
    10     3    35    1
    11     4     5    1
    12     4    36    1
    13     4    37    1
    14     5     6    1
    15     5    38    1
    16     5    39    1
    17     6     7    1
    18     6    40    1
    19     6    41    1
    20     7     8    2
    21     7     9   am
    22     9    10    1
    23     9    42    1
    24    10    11    1
    25    10    26    1
    26    10    12    1
    27    12    13    1
    28    12    43    1
    29    12    44    1
    30    13    14   am
    31    13    25    1
    32    14    15    2
    33    14    16    1
    34    16    17    1
    35    16    45    1
    36    16    46    1
    37    17    21    1
    38    17    18    1
    39    18    19    2
    40    18    47    1
    41    19    20    1
    42    19    48    1
    43    20    21    2
    44    21    22    1
    45    22    23    1
    46    22    24    1
    47    22    49    1
    48    23    50    1
    49    23    51    1
    50    23    52    1
    51    24    53    1
    52    24    54    1
    53    24    55    1
    54    25    26    1
    55    25    56    1
    56    25    57    1
    57    26    27    1
    58    26    28    1
    59    28    58    1
    60    28    59    1
    61    28    60    1
@<TRIPOS>SUBSTRUCTURE
     1 ZINC001289410668        1 TEMP              0 ****  ****    0 ROOT


##########                                Name:    ZINC000195331548
##########                DOCK_Rotatable_Bonds:                   7
##########                         Heavy_Atoms:                  26
##########                    Molecular_Weight:             378.539
##########                DOCK_Rotatable_Bonds:                   7
##########                       Formal_Charge:          -0.0100004
##########                     HBond_Acceptors:                   7
##########                        HBond_Donors:                   2
##########                         Heavy_Atoms:                  26
##########                          Grid_Score:          -34.700611
##########                     Grid_vdw_energy:          -33.095581
##########                      Grid_es_energy:           -1.605030
##########           Internal_energy_repulsive:           24.885595

@<TRIPOS>MOLECULE
ZINC000195331548
 56 58 1 0 0
SMALL
USER_CHARGES


@<TRIPOS>ATOM
      1 C1         -7.0631    1.7468   64.6597 C.3     1  ZINC000195331548   -0.0800
      2 C2         -7.9350    1.0013   63.6825 C.2     1  ZINC000195331548    0.0700
      3 C3         -8.7080   -0.0278   64.0423 C.2     1  ZINC000195331548   -0.2600
      4 S4         -9.5565   -0.5967   62.6067 S.3     1  ZINC000195331548    0.1100
      5 C5         -8.7812    0.6004   61.6638 C.2     1  ZINC000195331548    0.0600
      6 C6         -8.9875    0.8008   60.1844 C.3     1  ZINC000195331548   -0.0100
      7 H7         -9.8804    1.4039   60.0194 H       1  ZINC000195331548    0.1100
      8 C8         -9.1565   -0.5599   59.5029 C.3     1  ZINC000195331548   -0.1200
      9 C9         -9.3055   -0.3509   57.9934 C.3     1  ZINC000195331548   -0.1100
     10 C10        -8.0800    0.3972   57.4636 C.3     1  ZINC000195331548    0.0500
     11 N11        -7.9627    1.6922   58.1460 N.3     1  ZINC000195331548   -0.5200
     12 C12        -6.8790    2.4966   57.5658 C.3     1  ZINC000195331548    0.0400
     13 C13        -7.2288    2.8614   56.1463 C.2     1  ZINC000195331548    0.5100
     14 O14        -8.1802    3.5785   55.9215 O.2     1  ZINC000195331548   -0.4400
     15 N15        -6.4840    2.3906   55.1264 N.am    1  ZINC000195331548   -0.7000
     16 C16        -6.7978    2.7155   53.8566 C.2     1  ZINC000195331548    0.6900
     17 O17        -7.7534    3.4320   53.6310 O.2     1  ZINC000195331548   -0.5300
     18 N18        -6.0521    2.2460   52.8369 N.am    1  ZINC000195331548   -0.7300
     19 C19        -6.3922    2.6007   51.4567 C.3     1  ZINC000195331548    0.1700
     20 H20        -6.9479    3.5383   51.4489 H       1  ZINC000195331548    0.0900
     21 C21        -7.2512    1.4935   50.8426 C.3     1  ZINC000195331548   -0.1300
     22 C22        -6.4713    0.1774   50.8535 C.3     1  ZINC000195331548   -0.1200
     23 C23        -5.1873    0.3386   50.0372 C.3     1  ZINC000195331548   -0.1200
     24 C24        -4.3282    1.4458   50.6513 C.3     1  ZINC000195331548   -0.1100
     25 C25        -5.1082    2.7619   50.6404 C.3     1  ZINC000195331548   -0.1000
     26 H26        -5.3612    3.0258   49.6136 H       1  ZINC000195331548    0.0900
     27 C27        -4.2491    3.8690   51.2546 C.3     1  ZINC000195331548   -0.1500
     28 C28        -7.7713    1.5155   59.5911 C.3     1  ZINC000195331548    0.0600
     29 N29        -7.9980    1.3109   62.4031 N.2     1  ZINC000195331548   -0.4700
     30 H30        -7.6259    2.5749   65.0904 H       1  ZINC000195331548    0.0800
     31 H31        -6.7469    1.0704   65.4539 H       1  ZINC000195331548    0.0800
     32 H32        -6.1857    2.1341   64.1417 H       1  ZINC000195331548    0.0800
     33 H33        -8.7994   -0.4362   65.0380 H       1  ZINC000195331548    0.1800
     34 H34        -8.2804   -1.1776   59.7005 H       1  ZINC000195331548    0.0600
     35 H35       -10.0463   -1.0545   59.8926 H       1  ZINC000195331548    0.0700
     36 H36        -9.3834   -1.3186   57.4980 H       1  ZINC000195331548    0.0800
     37 H37       -10.2034    0.2341   57.7938 H       1  ZINC000195331548    0.0800
     38 H38        -8.1896    0.5603   56.3914 H       1  ZINC000195331548    0.0800
     39 H39        -7.1842   -0.1946   57.6511 H       1  ZINC000195331548    0.0400
     40 H40        -5.9537    1.9204   57.5755 H       1  ZINC000195331548    0.1200
     41 H41        -6.7471    3.4057   58.1526 H       1  ZINC000195331548    0.0700
     42 H42        -5.7222    1.8178   55.3063 H       1  ZINC000195331548    0.4100
     43 H43        -5.2902    1.6732   53.0168 H       1  ZINC000195331548    0.4000
     44 H44        -7.5043    1.7575   49.8157 H       1  ZINC000195331548    0.0700
     45 H45        -8.1661    1.3787   51.4240 H       1  ZINC000195331548    0.0700
     46 H46        -7.0833   -0.6114   50.4159 H       1  ZINC000195331548    0.0600
     47 H47        -6.2183   -0.0865   51.8803 H       1  ZINC000195331548    0.0600
     48 H48        -4.6316   -0.5990   50.0450 H       1  ZINC000195331548    0.0600
     49 H49        -5.4403    0.6026   49.0103 H       1  ZINC000195331548    0.0600
     50 H50        -4.0752    1.1818   51.6782 H       1  ZINC000195331548    0.0600
     51 H51        -3.4135    1.5607   50.0698 H       1  ZINC000195331548    0.0700
     52 H52        -3.9961    3.6052   52.2815 H       1  ZINC000195331548    0.0500
     53 H53        -3.3344    3.9839   50.6730 H       1  ZINC000195331548    0.0600
     54 H54        -4.8048    4.8067   51.2468 H       1  ZINC000195331548    0.0600
     55 H55        -6.8768    0.9184   59.7687 H       1  ZINC000195331548    0.0400
     56 H56        -7.6566    2.4908   60.0642 H       1  ZINC000195331548    0.0900
@<TRIPOS>BOND
     1     1     2    1
     2     1    30    1
     3     1    31    1
     4     1    32    1
     5     2    29    1
     6     2     3    2
     7     3     4    1
     8     3    33    1
     9     4     5    1
    10     5     6    1
    11     5    29    2
    12     6     7    1
    13     6    28    1
    14     6     8    1
    15     8     9    1
    16     8    34    1
    17     8    35    1
    18     9    10    1
    19     9    36    1
    20     9    37    1
    21    10    11    1
    22    10    38    1
    23    10    39    1
    24    11    12    1
    25    11    28    1
    26    12    13    1
    27    12    40    1
    28    12    41    1
    29    13    14    2
    30    13    15   am
    31    15    16   am
    32    15    42    1
    33    16    17    2
    34    16    18   am
    35    18    19    1
    36    18    43    1
    37    19    20    1
    38    19    25    1
    39    19    21    1
    40    21    22    1
    41    21    44    1
    42    21    45    1
    43    22    23    1
    44    22    46    1
    45    22    47    1
    46    23    24    1
    47    23    48    1
    48    23    49    1
    49    24    25    1
    50    24    50    1
    51    24    51    1
    52    25    26    1
    53    25    27    1
    54    27    52    1
    55    27    53    1
    56    27    54    1
    57    28    55    1
    58    28    56    1
@<TRIPOS>SUBSTRUCTURE
     1 ZINC000195331548        1 TEMP              0 ****  ****    0 ROOT


##########                                Name:    ZINC000583220082
##########                DOCK_Rotatable_Bonds:                   9
##########                         Heavy_Atoms:                  29
##########                    Molecular_Weight:             417.492
##########                DOCK_Rotatable_Bonds:                   9
##########                       Formal_Charge:          -0.0400006
##########                     HBond_Acceptors:                  11
##########                        HBond_Donors:                   3
##########                         Heavy_Atoms:                  29
##########                          Grid_Score:          -34.619320
##########                     Grid_vdw_energy:          -33.303440
##########                      Grid_es_energy:           -1.315879
##########           Internal_energy_repulsive:           19.803556

@<TRIPOS>MOLECULE
ZINC000583220082
 52 54 1 0 0
SMALL
USER_CHARGES


@<TRIPOS>ATOM
      1 C1        -10.7017    4.1441   59.1784 C.3     1  ZINC000583220082    0.0800
      2 N2         -9.8762    3.4929   60.1985 N.am    1  ZINC000583220082   -0.6300
      3 C3        -10.4992    2.6238   61.1999 C.3     1  ZINC000583220082    0.0800
      4 C4         -8.5435    3.6932   60.2156 C.2     1  ZINC000583220082    0.5100
      5 O5         -7.8601    3.1552   61.0609 O.2     1  ZINC000583220082   -0.5300
      6 C6         -7.9024    4.5856   59.1843 C.3     1  ZINC000583220082   -0.1000
      7 C7         -7.5941    3.7826   57.9469 C.ar    1  ZINC000583220082   -0.0800
      8 C8         -7.5036    2.4047   58.0236 C.ar    1  ZINC000583220082   -0.0800
      9 C9         -7.2212    1.6657   56.8917 C.ar    1  ZINC000583220082   -0.1400
     10 C10        -7.0286    2.3079   55.6749 C.ar    1  ZINC000583220082    0.1400
     11 N11        -6.7431    1.5633   54.5276 N.am    1  ZINC000583220082   -0.6400
     12 C12        -7.7056    1.3435   53.6101 C.2     1  ZINC000583220082    0.5100
     13 O13        -8.8203    1.7926   53.7804 O.2     1  ZINC000583220082   -0.4900
     14 C14        -7.4005    0.5475   52.3837 C.2     1  ZINC000583220082    0.5100
     15 O15        -7.7078   -0.6253   52.3294 O.2     1  ZINC000583220082   -0.5100
     16 N16        -6.7839    1.1317   51.3372 N.am    1  ZINC000583220082   -0.5800
     17 C17        -6.3974    2.5500   51.3846 C.3     1  ZINC000583220082    0.0600
     18 C18        -4.9211    2.6657   50.9904 C.3     1  ZINC000583220082    0.0300
     19 N19        -4.7106    2.0074   49.6942 N.3     1  ZINC000583220082   -0.4300
     20 C20        -3.4280    2.2296   49.2280 C.2     1  ZINC000583220082    0.2900
     21 N21        -2.9360    1.9018   48.0519 N.2     1  ZINC000583220082   -0.5700
     22 C22        -1.6772    2.2167   47.8268 C.2     1  ZINC000583220082    0.5400
     23 N23        -1.0633    1.9130   46.6124 N.pl3   1  ZINC000583220082   -0.8200
     24 N24        -1.0241    2.8240   48.7814 N.2     1  ZINC000583220082   -0.5500
     25 S25        -2.1312    3.0021   50.0582 S.3     1  ZINC000583220082    0.2000
     26 C26        -5.0001    0.5694   49.7735 C.3     1  ZINC000583220082    0.0500
     27 C27        -6.4742    0.3663   50.1201 C.3     1  ZINC000583220082    0.1100
     28 C28        -7.1205    3.6922   55.6015 C.ar    1  ZINC000583220082   -0.1200
     29 C29        -7.4080    4.4246   56.7363 C.ar    1  ZINC000583220082   -0.0800
     30 H30       -11.0360    5.1142   59.5464 H       1  ZINC000583220082    0.0500
     31 H31       -10.1151    4.2827   58.2701 H       1  ZINC000583220082    0.0800
     32 H32       -11.5683    3.5202   58.9595 H       1  ZINC000583220082    0.0700
     33 H33       -11.5748    2.5838   61.0275 H       1  ZINC000583220082    0.0800
     34 H34       -10.0810    1.6204   61.1207 H       1  ZINC000583220082    0.0600
     35 H35       -10.3054    3.0207   62.1963 H       1  ZINC000583220082    0.0600
     36 H36        -8.5852    5.3964   58.9304 H       1  ZINC000583220082    0.1000
     37 H37        -6.9788    5.0013   59.5872 H       1  ZINC000583220082    0.1000
     38 H38        -7.6536    1.9061   58.9698 H       1  ZINC000583220082    0.1300
     39 H39        -7.1501    0.5898   56.9524 H       1  ZINC000583220082    0.1300
     40 H40        -5.8523    1.2044   54.3914 H       1  ZINC000583220082    0.4200
     41 H41        -7.0089    3.1198   50.6847 H       1  ZINC000583220082    0.0900
     42 H42        -6.5379    2.9343   52.3948 H       1  ZINC000583220082    0.1700
     43 H43        -4.6466    3.7177   50.9129 H       1  ZINC000583220082    0.1100
     44 H44        -4.3035    2.1831   51.7478 H       1  ZINC000583220082    0.0700
     45 H45        -1.5333    1.3817   45.9509 H       1  ZINC000583220082    0.4200
     46 H46        -0.1661    2.2331   46.4291 H       1  ZINC000583220082    0.4200
     47 H47        -4.7830    0.1012   48.8134 H       1  ZINC000583220082    0.1100
     48 H48        -4.3815    0.1161   50.5480 H       1  ZINC000583220082    0.0600
     49 H49        -6.6673   -0.6925   50.2925 H       1  ZINC000583220082    0.1100
     50 H50        -7.0960    0.7261   49.3004 H       1  ZINC000583220082    0.0900
     51 H51        -6.9713    4.1947   54.6571 H       1  ZINC000583220082    0.1400
     52 H52        -7.4797    5.5008   56.6800 H       1  ZINC000583220082    0.1300
@<TRIPOS>BOND
     1     1     2    1
     2     1    30    1
     3     1    31    1
     4     1    32    1
     5     2     3    1
     6     2     4   am
     7     3    33    1
     8     3    34    1
     9     3    35    1
    10     4     5    2
    11     4     6    1
    12     6     7    1
    13     6    36    1
    14     6    37    1
    15     7    29   ar
    16     7     8   ar
    17     8     9   ar
    18     8    38    1
    19     9    10   ar
    20     9    39    1
    21    10    11    1
    22    10    28   ar
    23    11    12   am
    24    11    40    1
    25    12    13    2
    26    12    14    1
    27    14    15    2
    28    14    16   am
    29    16    27    1
    30    16    17    1
    31    17    18    1
    32    17    41    1
    33    17    42    1
    34    18    19    1
    35    18    43    1
    36    18    44    1
    37    19    20    1
    38    19    26    1
    39    20    25    1
    40    20    21    2
    41    21    22    1
    42    22    23    1
    43    22    24    2
    44    23    45    1
    45    23    46    1
    46    24    25    1
    47    26    27    1
    48    26    47    1
    49    26    48    1
    50    27    49    1
    51    27    50    1
    52    28    29   ar
    53    28    51    1
    54    29    52    1
@<TRIPOS>SUBSTRUCTURE
     1 ZINC000583220082        1 TEMP              0 ****  ****    0 ROOT


##########                                Name:    ZINC001124460178
##########                DOCK_Rotatable_Bonds:                  12
##########                         Heavy_Atoms:                  22
##########                    Molecular_Weight:             328.479
##########                DOCK_Rotatable_Bonds:                  12
##########                       Formal_Charge:          -0.0100003
##########                     HBond_Acceptors:                   7
##########                        HBond_Donors:                   2
##########                         Heavy_Atoms:                  22
##########                          Grid_Score:          -34.536118
##########                     Grid_vdw_energy:          -33.826134
##########                      Grid_es_energy:           -0.709985
##########           Internal_energy_repulsive:           22.006168

@<TRIPOS>MOLECULE
ZINC001124460178
 50 50 1 0 0
SMALL
USER_CHARGES


@<TRIPOS>ATOM
      1 C1         -2.5432    2.2994   48.4502 C.3     1  ZINC001124460178   -0.0700
      2 C2         -3.9350    2.1360   49.0048 C.2     1  ZINC001124460178    0.3100
      3 N3         -4.7653    3.1372   49.0404 N.2     1  ZINC001124460178   -0.5000
      4 S4         -6.1945    2.5275   49.7288 S.3     1  ZINC001124460178    0.1800
      5 C5         -5.5789    0.9310   49.9320 C.2     1  ZINC001124460178    0.3400
      6 N6         -6.2352   -0.1628   50.4668 N.pl3   1  ZINC001124460178   -0.6600
      7 C7         -6.5853   -0.1836   51.8892 C.3     1  ZINC001124460178    0.0900
      8 C8         -8.0351    0.2728   52.0643 C.3     1  ZINC001124460178    0.0800
      9 H9         -8.2596    1.0557   51.3399 H       1  ZINC001124460178    0.1200
     10 O10        -8.9120   -0.8358   51.8548 O.3     1  ZINC001124460178   -0.5500
     11 C11        -8.2307    0.8172   53.4807 C.3     1  ZINC001124460178    0.0900
     12 N12        -9.6198    1.2510   53.6496 N.am    1  ZINC001124460178   -0.6100
     13 C13       -10.1659    2.3088   52.7958 C.3     1  ZINC001124460178    0.0800
     14 C14       -10.3953    0.6771   54.5908 C.2     1  ZINC001124460178    0.5100
     15 O15       -11.5456    1.0353   54.7297 O.2     1  ZINC001124460178   -0.5400
     16 C16        -9.8329   -0.4096   55.4704 C.3     1  ZINC001124460178   -0.1400
     17 C17       -10.9115   -0.8854   56.4459 C.3     1  ZINC001124460178   -0.1100
     18 C18       -10.3432   -1.9950   57.3329 C.3     1  ZINC001124460178   -0.1200
     19 C19       -11.4816   -2.6614   58.1080 C.3     1  ZINC001124460178   -0.1200
     20 C20       -12.2378   -1.6033   58.9139 C.3     1  ZINC001124460178   -0.1000
     21 C21       -13.4309   -2.2538   59.6168 C.3     1  ZINC001124460178   -0.1500
     22 C22       -11.3015   -0.9923   59.9584 C.3     1  ZINC001124460178   -0.1500
     23 N23        -4.3501    0.9777   49.4624 N.2     1  ZINC001124460178   -0.5800
     24 H24        -2.5518    2.0922   47.3801 H       1  ZINC001124460178    0.0900
     25 H25        -2.2021    3.3207   48.6197 H       1  ZINC001124460178    0.0900
     26 H26        -1.8691    1.6035   48.9496 H       1  ZINC001124460178    0.0900
     27 H27        -6.4636   -0.9161   49.8999 H       1  ZINC001124460178    0.4200
     28 H28        -6.4740   -1.1966   52.2760 H       1  ZINC001124460178    0.0800
     29 H29        -5.9241    0.4888   52.4359 H       1  ZINC001124460178    0.0900
     30 H30        -9.7265   -0.6097   51.3850 H       1  ZINC001124460178    0.3800
     31 H31        -8.0037    0.0351   54.2052 H       1  ZINC001124460178    0.0900
     32 H32        -7.5636    1.6644   53.6397 H       1  ZINC001124460178    0.1000
     33 H33       -10.6050    1.8643   51.9027 H       1  ZINC001124460178    0.0600
     34 H34       -10.9323    2.8579   53.3428 H       1  ZINC001124460178    0.0800
     35 H35        -9.3666    2.9912   52.5067 H       1  ZINC001124460178    0.0800
     36 H36        -9.5080   -1.2462   54.8518 H       1  ZINC001124460178    0.0900
     37 H37        -8.9827   -0.0202   56.0306 H       1  ZINC001124460178    0.0900
     38 H38       -11.2318   -0.0503   57.0689 H       1  ZINC001124460178    0.0700
     39 H39       -11.7643   -1.2689   55.8858 H       1  ZINC001124460178    0.0700
     40 H40        -9.8438   -2.7376   56.7107 H       1  ZINC001124460178    0.0600
     41 H41        -9.6269   -1.5680   58.0348 H       1  ZINC001124460178    0.0600
     42 H42       -12.1650   -3.1421   57.4082 H       1  ZINC001124460178    0.0600
     43 H43       -11.0704   -3.4093   58.7861 H       1  ZINC001124460178    0.0600
     44 H44       -12.5935   -0.8212   58.2430 H       1  ZINC001124460178    0.0700
     45 H45       -13.0752   -3.0359   60.2877 H       1  ZINC001124460178    0.0500
     46 H46       -13.9696   -1.4999   60.1909 H       1  ZINC001124460178    0.0500
     47 H47       -14.0979   -2.6890   58.8728 H       1  ZINC001124460178    0.0500
     48 H48       -10.4515   -0.5288   59.4576 H       1  ZINC001124460178    0.0600
     49 H49       -11.8402   -0.2384   60.5325 H       1  ZINC001124460178    0.0500
     50 H50       -10.9458   -1.7742   60.6292 H       1  ZINC001124460178    0.0500
@<TRIPOS>BOND
     1     1     2    1
     2     1    24    1
     3     1    25    1
     4     1    26    1
     5     2    23    1
     6     2     3    2
     7     3     4    1
     8     4     5    1
     9     5     6    1
    10     5    23    2
    11     6     7    1
    12     6    27    1
    13     7     8    1
    14     7    28    1
    15     7    29    1
    16     8     9    1
    17     8    10    1
    18     8    11    1
    19    10    30    1
    20    11    12    1
    21    11    31    1
    22    11    32    1
    23    12    13    1
    24    12    14   am
    25    13    33    1
    26    13    34    1
    27    13    35    1
    28    14    15    2
    29    14    16    1
    30    16    17    1
    31    16    36    1
    32    16    37    1
    33    17    18    1
    34    17    38    1
    35    17    39    1
    36    18    19    1
    37    18    40    1
    38    18    41    1
    39    19    20    1
    40    19    42    1
    41    19    43    1
    42    20    21    1
    43    20    22    1
    44    20    44    1
    45    21    45    1
    46    21    46    1
    47    21    47    1
    48    22    48    1
    49    22    49    1
    50    22    50    1
@<TRIPOS>SUBSTRUCTURE
     1 ZINC001124460178        1 TEMP              0 ****  ****    0 ROOT


##########                                Name:    ZINC000538774026
##########                DOCK_Rotatable_Bonds:                  10
##########                         Heavy_Atoms:                  29
##########                    Molecular_Weight:             414.496
##########                DOCK_Rotatable_Bonds:                  10
##########                       Formal_Charge:            0.049999
##########                     HBond_Acceptors:                   9
##########                        HBond_Donors:                   2
##########                         Heavy_Atoms:                  29
##########                          Grid_Score:          -34.536057
##########                     Grid_vdw_energy:          -32.326790
##########                      Grid_es_energy:           -2.209265
##########           Internal_energy_repulsive:           25.718718

@<TRIPOS>MOLECULE
ZINC000538774026
 61 62 1 0 0
SMALL
USER_CHARGES


@<TRIPOS>ATOM
      1 C1         -9.6614    4.9448   60.8804 C.3     1  ZINC000538774026   -0.1500
      2 C2         -8.5839    3.9370   61.2858 C.3     1  ZINC000538774026   -0.1100
      3 C3         -8.7958    3.5223   62.7431 C.3     1  ZINC000538774026   -0.1400
      4 C4         -8.6754    2.7030   60.3859 C.3     1  ZINC000538774026    0.1400
      5 N5         -8.0002    2.9746   59.1145 N.pl3   1  ZINC000538774026   -0.3400
      6 N6         -7.6089    4.2335   58.6412 N.2     1  ZINC000538774026   -0.2500
      7 C7         -7.0376    4.0760   57.4746 C.2     1  ZINC000538774026    0.0500
      8 C8         -7.0437    2.7092   57.1612 C.2     1  ZINC000538774026    0.0800
      9 N9         -6.5213    2.1242   55.9914 N.am    1  ZINC000538774026   -0.6600
     10 C10        -7.3121    1.9503   54.9139 C.2     1  ZINC000538774026    0.7100
     11 O11        -8.4762    2.2999   54.9513 O.2     1  ZINC000538774026   -0.5700
     12 N12        -6.8127    1.3890   53.7950 N.am    1  ZINC000538774026   -0.7300
     13 C13        -7.6728    1.1984   52.6245 C.3     1  ZINC000538774026    0.1600
     14 C14        -7.6938    2.4824   51.7926 C.3     1  ZINC000538774026   -0.1300
     15 C15        -6.2731    2.8154   51.3327 C.3     1  ZINC000538774026   -0.1000
     16 C16        -5.7295    1.6655   50.4823 C.3     1  ZINC000538774026   -0.0800
     17 C17        -4.3301    1.9936   50.0293 C.2     1  ZINC000538774026    0.4700
     18 O18        -4.0852    2.0962   48.8506 O.2     1  ZINC000538774026   -0.5000
     19 O19        -3.3559    2.1720   50.9353 O.3     1  ZINC000538774026   -0.3500
     20 C20        -2.5947    3.4056   50.8504 C.3     1  ZINC000538774026    0.1200
     21 C21        -1.8945    3.6657   52.1857 C.3     1  ZINC000538774026   -0.1800
     22 C22        -1.5482    3.2838   49.7410 C.3     1  ZINC000538774026   -0.1400
     23 C23        -3.5393    4.5672   50.5352 C.3     1  ZINC000538774026   -0.1800
     24 C24        -5.7085    0.3817   51.3141 C.3     1  ZINC000538774026   -0.1100
     25 C25        -7.1292    0.0485   51.7740 C.3     1  ZINC000538774026   -0.1300
     26 C26        -7.6371    2.0494   58.1883 C.2     1  ZINC000538774026   -0.0500
     27 C27        -7.8608    0.5620   58.2803 C.3     1  ZINC000538774026    0.3500
     28 F28        -7.1910    0.0581   59.4004 F       1  ZINC000538774026   -0.1900
     29 F29        -9.2304    0.3030   58.4004 F       1  ZINC000538774026   -0.1900
     30 H30        -9.5963    5.8239   61.5215 H       1  ZINC000538774026    0.0600
     31 H31        -9.5105    5.2401   59.8422 H       1  ZINC000538774026    0.0600
     32 H32       -10.6452    4.4881   60.9888 H       1  ZINC000538774026    0.0600
     33 H33        -7.6001    4.3937   61.1773 H       1  ZINC000538774026    0.0800
     34 H34        -9.7795    3.0657   62.8516 H       1  ZINC000538774026    0.0600
     35 H35        -8.0282    2.8043   63.0319 H       1  ZINC000538774026    0.0600
     36 H36        -8.7306    4.4015   63.3842 H       1  ZINC000538774026    0.0600
     37 H37        -8.1955    1.8575   60.8788 H       1  ZINC000538774026    0.1000
     38 H38        -9.7228    2.4673   60.1979 H       1  ZINC000538774026    0.1000
     39 H39        -6.6311    4.8642   56.8583 H       1  ZINC000538774026    0.2100
     40 H40        -5.5924    1.8464   55.9611 H       1  ZINC000538774026    0.4100
     41 H41        -5.8838    1.1112   53.7647 H       1  ZINC000538774026    0.4000
     42 H42        -8.6848    0.9611   52.9520 H       1  ZINC000538774026    0.1000
     43 H43        -8.3337    2.3405   50.9217 H       1  ZINC000538774026    0.0800
     44 H44        -8.0810    3.3015   52.3984 H       1  ZINC000538774026    0.0800
     45 H45        -6.2881    3.7301   50.7400 H       1  ZINC000538774026    0.0700
     46 H46        -5.6331    2.9572   52.2036 H       1  ZINC000538774026    0.0700
     47 H47        -6.3694    1.5238   49.6113 H       1  ZINC000538774026    0.1100
     48 H48        -1.2216    2.8381   52.4103 H       1  ZINC000538774026    0.0600
     49 H49        -1.3230    4.5917   52.1220 H       1  ZINC000538774026    0.0700
     50 H50        -2.6400    3.7525   52.9761 H       1  ZINC000538774026    0.0800
     51 H51        -2.0470    3.0984   48.7897 H       1  ZINC000538774026    0.0700
     52 H52        -0.9767    4.2097   49.6773 H       1  ZINC000538774026    0.0800
     53 H53        -0.8752    2.4562   49.9656 H       1  ZINC000538774026    0.0700
     54 H54        -4.2849    4.6539   51.3255 H       1  ZINC000538774026    0.0800
     55 H55        -2.9679    5.4932   50.4714 H       1  ZINC000538774026    0.0700
     56 H56        -4.0382    4.3819   49.5838 H       1  ZINC000538774026    0.0600
     57 H57        -5.3212   -0.4375   50.7083 H       1  ZINC000538774026    0.0800
     58 H58        -5.0686    0.5235   52.1851 H       1  ZINC000538774026    0.0600
     59 H59        -7.1141   -0.8661   52.3666 H       1  ZINC000538774026    0.0800
     60 H60        -7.7691   -0.0932   50.9030 H       1  ZINC000538774026    0.0900
     61 H61        -7.4775    0.0805   57.3806 H       1  ZINC000538774026    0.1300
@<TRIPOS>BOND
     1     1     2    1
     2     1    30    1
     3     1    31    1
     4     1    32    1
     5     2     3    1
     6     2     4    1
     7     2    33    1
     8     3    34    1
     9     3    35    1
    10     3    36    1
    11     4     5    1
    12     4    37    1
    13     4    38    1
    14     5    26    1
    15     5     6    1
    16     6     7    2
    17     7     8    1
    18     7    39    1
    19     8     9    1
    20     8    26    2
    21     9    10   am
    22     9    40    1
    23    10    11    2
    24    10    12   am
    25    12    13    1
    26    12    41    1
    27    13    25    1
    28    13    14    1
    29    13    42    1
    30    14    15    1
    31    14    43    1
    32    14    44    1
    33    15    16    1
    34    15    45    1
    35    15    46    1
    36    16    17    1
    37    16    24    1
    38    16    47    1
    39    17    18    2
    40    17    19    1
    41    19    20    1
    42    20    21    1
    43    20    22    1
    44    20    23    1
    45    21    48    1
    46    21    49    1
    47    21    50    1
    48    22    51    1
    49    22    52    1
    50    22    53    1
    51    23    54    1
    52    23    55    1
    53    23    56    1
    54    24    25    1
    55    24    57    1
    56    24    58    1
    57    25    59    1
    58    25    60    1
    59    26    27    1
    60    27    28    1
    61    27    29    1
    62    27    61    1
@<TRIPOS>SUBSTRUCTURE
     1 ZINC000538774026        1 TEMP              0 ****  ****    0 ROOT


##########                                Name:    ZINC000058043838
##########                DOCK_Rotatable_Bonds:                   8
##########                         Heavy_Atoms:                  29
##########                    Molecular_Weight:             412.469
##########                DOCK_Rotatable_Bonds:                   8
##########                       Formal_Charge:           0.0200001
##########                     HBond_Acceptors:                   9
##########                        HBond_Donors:                   0
##########                         Heavy_Atoms:                  29
##########                          Grid_Score:          -34.518368
##########                     Grid_vdw_energy:          -32.567703
##########                      Grid_es_energy:           -1.950666
##########           Internal_energy_repulsive:           11.081894

@<TRIPOS>MOLECULE
ZINC000058043838
 49 51 1 0 0
SMALL
USER_CHARGES


@<TRIPOS>ATOM
      1 C1         -9.2207    5.3614   48.0342 C.3     1  ZINC000058043838    0.0300
      2 O2         -8.8088    5.7532   49.3453 O.3     1  ZINC000058043838   -0.3800
      3 C3         -7.6616    5.0513   49.8283 C.3     1  ZINC000058043838    0.0300
      4 C4         -8.0267    3.5862   50.0752 C.3     1  ZINC000058043838    0.1000
      5 N5         -7.0457    2.9845   50.9818 N.am    1  ZINC000058043838   -0.5200
      6 C6         -7.1635    3.1577   52.3131 C.2     1  ZINC000058043838    0.5100
      7 O7         -8.0809    3.8129   52.7606 O.2     1  ZINC000058043838   -0.4500
      8 C8         -6.1554    2.5374   53.2459 C.3     1  ZINC000058043838   -0.0900
      9 C9         -6.8508    2.0705   54.4986 C.ar    1  ZINC000058043838   -0.1400
     10 C10        -8.0590    1.3953   54.4205 C.ar    1  ZINC000058043838   -0.0500
     11 C11        -8.6627    0.9841   55.5993 C.ar    1  ZINC000058043838   -0.1700
     12 C12        -8.0443    1.2590   56.8041 C.ar    1  ZINC000058043838    0.1300
     13 C13        -8.6910    0.8164   58.0913 C.3     1  ZINC000058043838   -0.1100
     14 N14        -6.8944    1.9039   56.8404 N.ar    1  ZINC000058043838   -0.4800
     15 C15        -6.2894    2.3051   55.7397 C.ar    1  ZINC000058043838    0.1200
     16 C16        -5.9937    2.2354   50.4690 C.2     1  ZINC000058043838    0.3100
     17 N17        -4.8282    2.7030   50.1466 N.2     1  ZINC000058043838   -0.4700
     18 C18        -3.9430    1.8380   49.6715 C.2     1  ZINC000058043838    0.1100
     19 C19        -2.5753    2.2449   49.2670 C.ar    1  ZINC000058043838    0.0400
     20 C20        -1.6795    2.7297   50.2185 C.ar    1  ZINC000058043838   -0.0800
     21 C21        -0.4080    3.1064   49.8364 C.ar    1  ZINC000058043838   -0.0500
     22 C22        -0.0219    3.0034   48.5120 C.ar    1  ZINC000058043838   -0.0400
     23 N23         1.3434    3.4090   48.1083 N.pl3   1  ZINC000058043838    0.0300
     24 O24         2.1243    3.8324   48.9415 O.2     1  ZINC000058043838   -0.1600
     25 O25         1.6857    3.3193   46.9428 O.2     1  ZINC000058043838   -0.1600
     26 C26        -0.9066    2.5225   47.5635 C.ar    1  ZINC000058043838   -0.0500
     27 C27        -2.1791    2.1384   47.9349 C.ar    1  ZINC000058043838   -0.1100
     28 C28        -4.3708    0.5659   49.5820 C.2     1  ZINC000058043838   -0.2600
     29 S29        -6.0333    0.5016   50.1628 S.3     1  ZINC000058043838    0.1500
     30 H30        -8.4104    5.5454   47.3287 H       1  ZINC000058043838    0.0500
     31 H31        -9.4691    4.3000   48.0334 H       1  ZINC000058043838    0.0400
     32 H32       -10.0967    5.9398   47.7405 H       1  ZINC000058043838    0.0900
     33 H33        -6.8634    5.1070   49.0882 H       1  ZINC000058043838    0.0600
     34 H34        -7.3247    5.5039   50.7609 H       1  ZINC000058043838    0.0800
     35 H35        -9.0185    3.5295   50.5238 H       1  ZINC000058043838    0.1200
     36 H36        -8.0249    3.0467   49.1281 H       1  ZINC000058043838    0.1000
     37 H37        -5.6814    1.6874   52.7552 H       1  ZINC000058043838    0.1100
     38 H38        -5.3973    3.2765   53.5050 H       1  ZINC000058043838    0.1100
     39 H39        -8.5194    1.1946   53.4644 H       1  ZINC000058043838    0.1300
     40 H40        -9.6045    0.4559   55.5761 H       1  ZINC000058043838    0.1400
     41 H41        -8.3433   -0.1845   58.3472 H       1  ZINC000058043838    0.0800
     42 H42        -8.4234    1.5090   58.8892 H       1  ZINC000058043838    0.0800
     43 H43        -9.7740    0.8045   57.9684 H       1  ZINC000058043838    0.0800
     44 H44        -5.3484    2.8307   55.8092 H       1  ZINC000058043838    0.1500
     45 H45        -1.9799    2.8108   51.2526 H       1  ZINC000058043838    0.1600
     46 H46         0.2868    3.4824   50.5726 H       1  ZINC000058043838    0.1600
     47 H47        -0.5999    2.4444   46.5309 H       1  ZINC000058043838    0.1600
     48 H48        -2.8688    1.7627   47.1936 H       1  ZINC000058043838    0.1500
     49 H49        -3.7936   -0.2722   49.2201 H       1  ZINC000058043838    0.1800
@<TRIPOS>BOND
     1     1     2    1
     2     1    30    1
     3     1    31    1
     4     1    32    1
     5     2     3    1
     6     3     4    1
     7     3    33    1
     8     3    34    1
     9     4     5    1
    10     4    35    1
    11     4    36    1
    12     5     6   am
    13     5    16    1
    14     6     7    2
    15     6     8    1
    16     8     9    1
    17     8    37    1
    18     8    38    1
    19     9    15   ar
    20     9    10   ar
    21    10    11   ar
    22    10    39    1
    23    11    12   ar
    24    11    40    1
    25    12    13    1
    26    12    14   ar
    27    13    41    1
    28    13    42    1
    29    13    43    1
    30    14    15   ar
    31    15    44    1
    32    16    29    1
    33    16    17    2
    34    17    18    1
    35    18    19    1
    36    18    28    2
    37    19    27   ar
    38    19    20   ar
    39    20    21   ar
    40    20    45    1
    41    21    22   ar
    42    21    46    1
    43    22    23    1
    44    22    26   ar
    45    23    24    2
    46    23    25    2
    47    26    27   ar
    48    26    47    1
    49    27    48    1
    50    28    29    1
    51    28    49    1
@<TRIPOS>SUBSTRUCTURE
     1 ZINC000058043838        1 TEMP              0 ****  ****    0 ROOT


##########                                Name:    ZINC000981700465
##########                DOCK_Rotatable_Bonds:                   9
##########                         Heavy_Atoms:                  26
##########                    Molecular_Weight:             356.428
##########                DOCK_Rotatable_Bonds:                   9
##########                       Formal_Charge:               -0.01
##########                     HBond_Acceptors:                   8
##########                        HBond_Donors:                   3
##########                         Heavy_Atoms:                  26
##########                          Grid_Score:          -34.511662
##########                     Grid_vdw_energy:          -33.204792
##########                      Grid_es_energy:           -1.306870
##########           Internal_energy_repulsive:           14.104474

@<TRIPOS>MOLECULE
ZINC000981700465
 50 52 1 0 0
SMALL
USER_CHARGES


@<TRIPOS>ATOM
      1 C1         -8.4141   -1.2966   59.3240 C.3     1  ZINC000981700465   -0.1500
      2 C2         -8.2081    0.1249   58.7966 C.3     1  ZINC000981700465   -0.1100
      3 C3         -9.5077    0.6278   58.1649 C.3     1  ZINC000981700465   -0.0500
      4 C4         -9.9017   -0.2849   57.0323 C.2     1  ZINC000981700465    0.1400
      5 N5        -10.7518   -1.2718   57.1032 N.2     1  ZINC000981700465   -0.2900
      6 N6        -10.8484   -1.8781   55.8458 N.pl3   1  ZINC000981700465   -0.4600
      7 C7        -10.0310   -1.2332   54.9982 C.2     1  ZINC000981700465    0.1000
      8 C8         -9.4200   -0.2175   55.7057 C.2     1  ZINC000981700465   -0.2900
      9 C9         -8.4403    0.7499   55.1786 C.2     1  ZINC000981700465    0.5900
     10 O10        -7.7884    1.4336   55.9442 O.2     1  ZINC000981700465   -0.5300
     11 N11        -8.2673    0.8765   53.8479 N.am    1  ZINC000981700465   -0.7300
     12 C12        -7.2951    1.8390   53.3240 C.3     1  ZINC000981700465    0.1300
     13 C13        -7.2663    1.7548   51.7966 C.3     1  ZINC000981700465   -0.1100
     14 H14        -8.2182    1.3824   51.4180 H       1  ZINC000981700465    0.0900
     15 C15        -6.9436    3.1401   51.1833 C.3     1  ZINC000981700465   -0.1200
     16 C16        -6.3672    2.7725   49.7934 C.3     1  ZINC000981700465   -0.1300
     17 C17        -5.5339    1.5007   50.0536 C.3     1  ZINC000981700465    0.1400
     18 H18        -5.6273    0.8144   49.2119 H       1  ZINC000981700465    0.1000
     19 N19        -4.1273    1.8554   50.2577 N.am    1  ZINC000981700465   -0.7100
     20 C20        -3.3583    2.1950   49.2043 C.2     1  ZINC000981700465    0.5600
     21 O21        -3.8313    2.2056   48.0850 O.2     1  ZINC000981700465   -0.5200
     22 C22        -1.9364    2.5555   49.4109 C.ar    1  ZINC000981700465   -0.1400
     23 C23        -1.4501    2.8862   50.6822 C.ar    1  ZINC000981700465   -0.0600
     24 C24        -0.1084    3.2120   50.7967 C.ar    1  ZINC000981700465    0.0400
     25 N25         0.6651    3.2035   49.7285 N.ar    1  ZINC000981700465   -0.2200
     26 N26         0.2261    2.9016   48.5616 N.ar    1  ZINC000981700465   -0.2400
     27 C27        -1.0323    2.5716   48.3451 C.ar    1  ZINC000981700465    0.0700
     28 C28        -6.1077    0.8507   51.3274 C.3     1  ZINC000981700465   -0.1200
     29 H29        -8.6953   -1.9526   58.5002 H       1  ZINC000981700465    0.0600
     30 H30        -7.4883   -1.6548   59.7740 H       1  ZINC000981700465    0.0600
     31 H31        -9.2055   -1.2949   60.0735 H       1  ZINC000981700465    0.0500
     32 H32        -7.9270    0.7809   59.6204 H       1  ZINC000981700465    0.0600
     33 H33        -7.4167    0.1231   58.0471 H       1  ZINC000981700465    0.0600
     34 H34       -10.2974    0.6364   58.9162 H       1  ZINC000981700465    0.1000
     35 H35        -9.3589    1.6377   57.7827 H       1  ZINC000981700465    0.0800
     36 H36       -11.4111   -2.6364   55.6239 H       1  ZINC000981700465    0.4500
     37 H37        -9.8823   -1.4638   53.9536 H       1  ZINC000981700465    0.1800
     38 H38        -8.7864    0.3303   53.2372 H       1  ZINC000981700465    0.4000
     39 H39        -7.5813    2.8461   53.6271 H       1  ZINC000981700465    0.0700
     40 H40        -6.3059    1.6081   53.7192 H       1  ZINC000981700465    0.0700
     41 H41        -7.8495    3.7373   51.0802 H       1  ZINC000981700465    0.0700
     42 H42        -6.2000    3.6644   51.7834 H       1  ZINC000981700465    0.0700
     43 H43        -7.1728    2.5635   49.0895 H       1  ZINC000981700465    0.0800
     44 H44        -5.7315    3.5752   49.4196 H       1  ZINC000981700465    0.0700
     45 H45        -3.7493    1.8458   51.1510 H       1  ZINC000981700465    0.4000
     46 H46        -2.1000    2.8877   51.5449 H       1  ZINC000981700465    0.1700
     47 H47         0.3040    3.4729   51.7602 H       1  ZINC000981700465    0.1800
     48 H48        -1.3645    2.3232   47.3479 H       1  ZINC000981700465    0.1700
     49 H49        -5.3398    0.8001   52.0991 H       1  ZINC000981700465    0.0800
     50 H50        -6.4777   -0.1495   51.1020 H       1  ZINC000981700465    0.0800
@<TRIPOS>BOND
     1     1     2    1
     2     1    29    1
     3     1    30    1
     4     1    31    1
     5     2     3    1
     6     2    32    1
     7     2    33    1
     8     3     4    1
     9     3    34    1
    10     3    35    1
    11     4     8    1
    12     4     5    2
    13     5     6    1
    14     6     7    1
    15     6    36    1
    16     7     8    2
    17     7    37    1
    18     8     9    1
    19     9    10    2
    20     9    11   am
    21    11    12    1
    22    11    38    1
    23    12    13    1
    24    12    39    1
    25    12    40    1
    26    13    14    1
    27    13    28    1
    28    13    15    1
    29    15    16    1
    30    15    41    1
    31    15    42    1
    32    16    17    1
    33    16    43    1
    34    16    44    1
    35    17    18    1
    36    17    19    1
    37    17    28    1
    38    19    20   am
    39    19    45    1
    40    20    21    2
    41    20    22    1
    42    22    27   ar
    43    22    23   ar
    44    23    24   ar
    45    23    46    1
    46    24    25   ar
    47    24    47    1
    48    25    26   ar
    49    26    27   ar
    50    27    48    1
    51    28    49    1
    52    28    50    1
@<TRIPOS>SUBSTRUCTURE
     1 ZINC000981700465        1 TEMP              0 ****  ****    0 ROOT


##########                                Name:    ZINC000509132103
##########                DOCK_Rotatable_Bonds:                   7
##########                         Heavy_Atoms:                  29
##########                    Molecular_Weight:              405.52
##########                DOCK_Rotatable_Bonds:                   7
##########                       Formal_Charge:          -0.0499998
##########                     HBond_Acceptors:                   6
##########                        HBond_Donors:                   0
##########                         Heavy_Atoms:                  29
##########                          Grid_Score:          -34.486954
##########                     Grid_vdw_energy:          -33.546753
##########                      Grid_es_energy:           -0.940199
##########           Internal_energy_repulsive:           11.622823

@<TRIPOS>MOLECULE
ZINC000509132103
 52 55 1 0 0
SMALL
USER_CHARGES


@<TRIPOS>ATOM
      1 C1        -15.9110   -3.6710   47.5364 C.3     1  ZINC000509132103    0.0300
      2 O2        -15.3186   -2.5502   46.8767 O.3     1  ZINC000509132103   -0.3000
      3 C3        -15.1317   -1.4282   47.6166 C.ar    1  ZINC000509132103    0.2700
      4 C4        -14.5591   -0.2978   47.0397 C.ar    1  ZINC000509132103   -0.1300
      5 C5        -14.3893    0.8235   47.8378 C.ar    1  ZINC000509132103   -0.0700
      6 C6        -14.8000    0.7500   49.1608 C.ar    1  ZINC000509132103    0.0500
      7 C7        -14.6371    1.9422   50.0680 C.3     1  ZINC000509132103   -0.0500
      8 S8        -14.3105    1.3748   51.7597 S.3     1  ZINC000509132103   -0.1500
      9 C9        -12.5473    0.9509   51.7148 C.3     1  ZINC000509132103   -0.1300
     10 C10       -12.0607    0.6770   53.1145 C.2     1  ZINC000509132103    0.5400
     11 O11       -12.8386    0.7106   54.0444 O.2     1  ZINC000509132103   -0.5100
     12 N12       -10.7611    0.3945   53.3329 N.am    1  ZINC000509132103   -0.6100
     13 C13       -10.2560    0.1233   54.6831 C.3     1  ZINC000509132103    0.1500
     14 C14        -8.9589    0.8620   54.8980 C.ar    1  ZINC000509132103   -0.1000
     15 C15        -8.4557    0.9248   56.1898 C.ar    1  ZINC000509132103   -0.1100
     16 C16        -7.2677    1.5779   56.4479 C.ar    1  ZINC000509132103   -0.1200
     17 C17        -6.5734    2.1725   55.4112 C.ar    1  ZINC000509132103   -0.1200
     18 C18        -7.0745    2.1141   54.1273 C.ar    1  ZINC000509132103   -0.1100
     19 C19        -8.2733    1.4626   53.8654 C.ar    1  ZINC000509132103   -0.0600
     20 C20        -8.7723    1.4626   52.4444 C.3     1  ZINC000509132103   -0.0200
     21 H21        -9.2408    2.4229   52.2291 H       1  ZINC000509132103    0.1000
     22 C22        -7.6075    1.2589   51.5102 C.ar    1  ZINC000509132103   -0.0800
     23 C23        -6.8417    0.1117   51.6003 C.ar    1  ZINC000509132103   -0.1100
     24 C24        -5.7733   -0.0752   50.7432 C.ar    1  ZINC000509132103   -0.1200
     25 C25        -5.4708    0.8851   49.7960 C.ar    1  ZINC000509132103   -0.1200
     26 C26        -6.2372    2.0319   49.7054 C.ar    1  ZINC000509132103   -0.1200
     27 C27        -7.3083    2.2168   50.5595 C.ar    1  ZINC000509132103   -0.1100
     28 C28        -9.7929    0.3398   52.2252 C.3     1  ZINC000509132103    0.1200
     29 N29       -15.3334   -0.3632   49.6241 N.ar    1  ZINC000509132103   -0.1900
     30 N30       -15.4979   -1.4019   48.8883 N.ar    1  ZINC000509132103   -0.3000
     31 H31       -16.8990   -3.3952   47.9048 H       1  ZINC000509132103    0.0600
     32 H32       -16.0034   -4.4991   46.8335 H       1  ZINC000509132103    0.1000
     33 H33       -15.2823   -3.9737   48.3738 H       1  ZINC000509132103    0.0600
     34 H34       -14.2563   -0.2944   46.0029 H       1  ZINC000509132103    0.1600
     35 H35       -13.9501    1.7269   47.4414 H       1  ZINC000509132103    0.1600
     36 H36       -13.8020    2.5511   49.7215 H       1  ZINC000509132103    0.1100
     37 H37       -15.5506    2.5368   50.0542 H       1  ZINC000509132103    0.1000
     38 H38       -12.4027    0.0629   51.0995 H       1  ZINC000509132103    0.1100
     39 H39       -11.9844    1.7825   51.2906 H       1  ZINC000509132103    0.1100
     40 H40       -10.9889    0.4560   55.4182 H       1  ZINC000509132103    0.1000
     41 H41       -10.0873   -0.9473   54.7991 H       1  ZINC000509132103    0.0900
     42 H42        -8.9983    0.4594   56.9994 H       1  ZINC000509132103    0.1200
     43 H43        -6.8820    1.6238   57.4556 H       1  ZINC000509132103    0.1300
     44 H44        -5.6412    2.6819   55.6059 H       1  ZINC000509132103    0.1200
     45 H45        -6.5304    2.5792   53.3186 H       1  ZINC000509132103    0.1200
     46 H46        -7.0779   -0.6386   52.3404 H       1  ZINC000509132103    0.1200
     47 H47        -5.1745   -0.9712   50.8141 H       1  ZINC000509132103    0.1200
     48 H48        -4.6357    0.7395   49.1269 H       1  ZINC000509132103    0.1200
     49 H49        -6.0008    2.7824   48.9655 H       1  ZINC000509132103    0.1200
     50 H50        -7.9070    3.1129   50.4887 H       1  ZINC000509132103    0.1200
     51 H51        -9.2848   -0.6246   52.2201 H       1  ZINC000509132103    0.0800
     52 H52       -10.3089    0.4904   51.2770 H       1  ZINC000509132103    0.1000
@<TRIPOS>BOND
     1     1     2    1
     2     1    31    1
     3     1    32    1
     4     1    33    1
     5     2     3    1
     6     3    30   ar
     7     3     4   ar
     8     4     5   ar
     9     4    34    1
    10     5     6   ar
    11     5    35    1
    12     6     7    1
    13     6    29   ar
    14     7     8    1
    15     7    36    1
    16     7    37    1
    17     8     9    1
    18     9    10    1
    19     9    38    1
    20     9    39    1
    21    10    11    2
    22    10    12   am
    23    12    28    1
    24    12    13    1
    25    13    14    1
    26    13    40    1
    27    13    41    1
    28    14    19   ar
    29    14    15   ar
    30    15    16   ar
    31    15    42    1
    32    16    17   ar
    33    16    43    1
    34    17    18   ar
    35    17    44    1
    36    18    19   ar
    37    18    45    1
    38    19    20    1
    39    20    21    1
    40    20    22    1
    41    20    28    1
    42    22    27   ar
    43    22    23   ar
    44    23    24   ar
    45    23    46    1
    46    24    25   ar
    47    24    47    1
    48    25    26   ar
    49    25    48    1
    50    26    27   ar
    51    26    49    1
    52    27    50    1
    53    28    51    1
    54    28    52    1
    55    29    30   ar
@<TRIPOS>SUBSTRUCTURE
     1 ZINC000509132103        1 TEMP              0 ****  ****    0 ROOT


##########                                Name:    ZINC000503413572
##########                DOCK_Rotatable_Bonds:                   7
##########                         Heavy_Atoms:                  26
##########                    Molecular_Weight:             355.375
##########                DOCK_Rotatable_Bonds:                   7
##########                       Formal_Charge:        -1.71363e-07
##########                     HBond_Acceptors:                   9
##########                        HBond_Donors:                   1
##########                         Heavy_Atoms:                  26
##########                          Grid_Score:          -34.460281
##########                     Grid_vdw_energy:          -33.766846
##########                      Grid_es_energy:           -0.693437
##########           Internal_energy_repulsive:            7.123388

@<TRIPOS>MOLECULE
ZINC000503413572
 44 47 1 0 0
SMALL
USER_CHARGES


@<TRIPOS>ATOM
      1 C1         -7.7444    3.1282   51.1222 C.3     1  ZINC000503413572   -0.1200
      2 C2         -6.6329    2.2692   50.5767 C.ar    1  ZINC000503413572   -0.0200
      3 C3         -5.6879    2.8166   49.7317 C.ar    1  ZINC000503413572   -0.1400
      4 C4         -4.6659    2.0275   49.2304 C.ar    1  ZINC000503413572    0.1300
      5 F5         -3.7419    2.5650   48.4042 F       1  ZINC000503413572   -0.1300
      6 C6         -4.5897    0.6888   49.5755 C.ar    1  ZINC000503413572   -0.1400
      7 C7         -5.5332    0.1377   50.4204 C.ar    1  ZINC000503413572   -0.0700
      8 C8         -6.5551    0.9282   50.9279 C.ar    1  ZINC000503413572    0.1000
      9 N9         -7.5140    0.3704   51.7866 N.pl3   1  ZINC000503413572   -0.3100
     10 C10        -7.6624    0.6280   53.1040 C.2     1  ZINC000503413572    0.1100
     11 C11        -8.7132   -0.1293   53.5385 C.2     1  ZINC000503413572   -0.1000
     12 C12        -9.2359   -0.1685   54.9174 C.2     1  ZINC000503413572    0.6100
     13 O13        -8.7190    0.5111   55.7830 O.2     1  ZINC000503413572   -0.5300
     14 N14       -10.2864   -0.9577   55.2176 N.am    1  ZINC000503413572   -0.7200
     15 C15       -10.8066   -0.9953   56.5867 C.3     1  ZINC000503413572    0.1100
     16 C16       -11.4247   -2.3679   56.8598 C.3     1  ZINC000503413572    0.1000
     17 N17       -12.0878   -2.3536   58.1661 N.pl3   1  ZINC000503413572   -0.4700
     18 C18       -11.7115   -1.6536   59.2635 C.2     1  ZINC000503413572    0.1500
     19 N19       -12.5703   -1.9227   60.2089 N.2     1  ZINC000503413572   -0.2900
     20 N20       -13.4556   -2.7449   59.7685 N.2     1  ZINC000503413572   -0.2900
     21 C21       -13.2052   -3.0332   58.5204 C.2     1  ZINC000503413572    0.2100
     22 C22       -14.0048   -3.9585   57.6397 C.3     1  ZINC000503413572   -0.1000
     23 C23       -15.4331   -4.2902   58.0762 C.3     1  ZINC000503413572   -0.1500
     24 C24       -15.1937   -3.3621   56.8837 C.3     1  ZINC000503413572   -0.1600
     25 N25        -9.1903   -0.8327   52.4972 N.2     1  ZINC000503413572   -0.2000
     26 N26        -8.5068   -0.5575   51.4414 N.2     1  ZINC000503413572   -0.0400
     27 H27        -7.4632    3.5049   52.1056 H       1  ZINC000503413572    0.0900
     28 H28        -7.9196    3.9669   50.4483 H       1  ZINC000503413572    0.0800
     29 H29        -8.6544    2.5342   51.2072 H       1  ZINC000503413572    0.0700
     30 H30        -5.7460    3.8605   49.4612 H       1  ZINC000503413572    0.1500
     31 H31        -3.7923    0.0749   49.1834 H       1  ZINC000503413572    0.1500
     32 H32        -5.4737   -0.9067   50.6890 H       1  ZINC000503413572    0.1500
     33 H33        -7.0650    1.3026   53.6995 H       1  ZINC000503413572    0.2100
     34 H34       -10.6980   -1.5009   54.5273 H       1  ZINC000503413572    0.4100
     35 H35        -9.9929   -0.8168   57.2896 H       1  ZINC000503413572    0.0800
     36 H36       -11.5671   -0.2238   56.7077 H       1  ZINC000503413572    0.0800
     37 H37       -12.1550   -2.5985   56.0841 H       1  ZINC000503413572    0.1100
     38 H38       -10.6414   -3.1260   56.8583 H       1  ZINC000503413572    0.1100
     39 H39       -10.8587   -0.9956   59.3418 H       1  ZINC000503413572    0.2200
     40 H40       -13.4349   -4.7436   57.1428 H       1  ZINC000503413572    0.1200
     41 H41       -15.8032   -5.2938   57.8665 H       1  ZINC000503413572    0.1100
     42 H42       -15.7945   -3.8392   59.0004 H       1  ZINC000503413572    0.1100
     43 H43       -15.3976   -2.3005   57.0233 H       1  ZINC000503413572    0.1000
     44 H44       -15.4062   -3.7551   55.8895 H       1  ZINC000503413572    0.1100
@<TRIPOS>BOND
     1     1     2    1
     2     1    27    1
     3     1    28    1
     4     1    29    1
     5     2     8   ar
     6     2     3   ar
     7     3     4   ar
     8     3    30    1
     9     4     5    1
    10     4     6   ar
    11     6     7   ar
    12     6    31    1
    13     7     8   ar
    14     7    32    1
    15     8     9    1
    16     9    26    1
    17     9    10    1
    18    10    11    2
    19    10    33    1
    20    11    12    1
    21    11    25    1
    22    12    13    2
    23    12    14   am
    24    14    15    1
    25    14    34    1
    26    15    16    1
    27    15    35    1
    28    15    36    1
    29    16    17    1
    30    16    37    1
    31    16    38    1
    32    17    21    1
    33    17    18    1
    34    18    19    2
    35    18    39    1
    36    19    20    1
    37    20    21    2
    38    21    22    1
    39    22    24    1
    40    22    23    1
    41    22    40    1
    42    23    24    1
    43    23    41    1
    44    23    42    1
    45    24    43    1
    46    24    44    1
    47    25    26    2
@<TRIPOS>SUBSTRUCTURE
     1 ZINC000503413572        1 TEMP              0 ****  ****    0 ROOT


##########                                Name:    ZINC001109404798
##########                DOCK_Rotatable_Bonds:                   7
##########                         Heavy_Atoms:                  25
##########                    Molecular_Weight:              360.48
##########                DOCK_Rotatable_Bonds:                   7
##########                       Formal_Charge:           0.0100002
##########                     HBond_Acceptors:                   7
##########                        HBond_Donors:                   1
##########                         Heavy_Atoms:                  25
##########                          Grid_Score:          -34.455769
##########                     Grid_vdw_energy:          -33.909702
##########                      Grid_es_energy:           -0.546067
##########           Internal_energy_repulsive:           28.490196

@<TRIPOS>MOLECULE
ZINC001109404798
 49 52 1 0 0
SMALL
USER_CHARGES


@<TRIPOS>ATOM
      1 C1          1.0799    1.9403   47.8947 C.3     1  ZINC001109404798   -0.0600
      2 C2         -0.3672    2.2089   48.2184 C.2     1  ZINC001109404798    0.1700
      3 N3         -1.3669    2.1346   47.3915 N.2     1  ZINC001109404798   -0.3900
      4 O4         -2.4029    2.4092   47.9594 O.3     1  ZINC001109404798    0.1000
      5 C5         -2.1550    2.6932   49.2415 C.2     1  ZINC001109404798    0.1900
      6 C6         -3.1684    3.0826   50.2867 C.3     1  ZINC001109404798    0.1600
      7 H7         -3.8422    3.8352   49.8771 H       1  ZINC001109404798    0.1000
      8 C8         -2.4468    3.6552   51.5084 C.3     1  ZINC001109404798   -0.1500
      9 N9         -3.9410    1.8984   50.6849 N.3     1  ZINC001109404798   -0.4800
     10 C10        -4.7332    1.3553   49.5243 C.3     1  ZINC001109404798    0.0400
     11 H11        -4.1495    0.9885   48.6800 H       1  ZINC001109404798    0.1100
     12 C12        -5.6766    2.5575   49.2187 C.3     1  ZINC001109404798   -0.1600
     13 C13        -5.9236    3.1870   50.6116 C.3     1  ZINC001109404798   -0.1600
     14 C14        -5.0964    2.2808   51.5728 C.3     1  ZINC001109404798    0.0400
     15 H15        -4.8324    2.7286   52.5308 H       1  ZINC001109404798    0.1200
     16 C16        -5.8920    0.9431   51.6517 C.3     1  ZINC001109404798    0.1500
     17 H17        -5.4923    0.3049   52.4397 H       1  ZINC001109404798    0.1000
     18 N18        -7.3166    1.2025   51.8730 N.am    1  ZINC001109404798   -0.7200
     19 C19        -8.1694    0.1739   52.0498 C.2     1  ZINC001109404798    0.5100
     20 O20        -7.7570   -0.9665   52.0272 O.2     1  ZINC001109404798   -0.5300
     21 C21        -9.6353    0.4406   52.2758 C.3     1  ZINC001109404798   -0.1300
     22 C22        -9.8270    1.1187   53.6339 C.3     1  ZINC001109404798   -0.0400
     23 C23       -10.5111    0.1653   54.5794 C.2     1  ZINC001109404798   -0.1000
     24 C24       -10.0714   -1.0765   54.7888 C.2     1  ZINC001109404798   -0.2100
     25 S25       -11.1178   -1.8849   55.9486 S.3     1  ZINC001109404798    0.1000
     26 C26       -12.1231   -0.4484   56.0880 C.2     1  ZINC001109404798   -0.2100
     27 C27       -11.6398    0.5139   55.3008 C.2     1  ZINC001109404798   -0.1300
     28 C28        -5.6211    0.2933   50.2404 C.3     1  ZINC001109404798   -0.1100
     29 N29        -0.8620    2.5636   49.4176 N.2     1  ZINC001109404798   -0.4800
     30 H30         1.2985    0.8847   48.0559 H       1  ZINC001109404798    0.0900
     31 H31         1.2727    2.1962   46.8528 H       1  ZINC001109404798    0.0900
     32 H32         1.7152    2.5458   48.5411 H       1  ZINC001109404798    0.0900
     33 H33        -1.8735    4.5340   51.2129 H       1  ZINC001109404798    0.0700
     34 H34        -3.1798    3.9369   52.2644 H       1  ZINC001109404798    0.0800
     35 H35        -1.7729    2.9027   51.9181 H       1  ZINC001109404798    0.0800
     36 H36        -5.1865    3.2713   48.5565 H       1  ZINC001109404798    0.0700
     37 H37        -6.6132    2.2093   48.7835 H       1  ZINC001109404798    0.0800
     38 H38        -5.5559    4.2126   50.6399 H       1  ZINC001109404798    0.0700
     39 H39        -6.9827    3.1508   50.8667 H       1  ZINC001109404798    0.0800
     40 H40        -7.6464    2.1145   51.8923 H       1  ZINC001109404798    0.4000
     41 H41       -10.0117    1.0927   51.4877 H       1  ZINC001109404798    0.0900
     42 H42       -10.1828   -0.5019   52.2598 H       1  ZINC001109404798    0.1000
     43 H43        -8.8552    1.3989   54.0404 H       1  ZINC001109404798    0.0800
     44 H44       -10.4405    2.0112   53.5109 H       1  ZINC001109404798    0.0800
     45 H45        -9.2057   -1.5182   54.3179 H       1  ZINC001109404798    0.1600
     46 H46       -12.9954   -0.3578   56.7183 H       1  ZINC001109404798    0.1600
     47 H47       -12.0992    1.4885   55.2259 H       1  ZINC001109404798    0.1400
     48 H48        -6.5543    0.1640   49.6921 H       1  ZINC001109404798    0.0800
     49 H49        -5.1037   -0.6598   50.3496 H       1  ZINC001109404798    0.0900
@<TRIPOS>BOND
     1     1     2    1
     2     1    30    1
     3     1    31    1
     4     1    32    1
     5     2    29    1
     6     2     3    2
     7     3     4    1
     8     4     5    1
     9     5     6    1
    10     5    29    2
    11     6     7    1
    12     6     8    1
    13     6     9    1
    14     8    33    1
    15     8    34    1
    16     8    35    1
    17     9    14    1
    18     9    10    1
    19    10    11    1
    20    10    28    1
    21    10    12    1
    22    12    13    1
    23    12    36    1
    24    12    37    1
    25    13    14    1
    26    13    38    1
    27    13    39    1
    28    14    15    1
    29    14    16    1
    30    16    17    1
    31    16    18    1
    32    16    28    1
    33    18    19   am
    34    18    40    1
    35    19    20    2
    36    19    21    1
    37    21    22    1
    38    21    41    1
    39    21    42    1
    40    22    23    1
    41    22    43    1
    42    22    44    1
    43    23    27    1
    44    23    24    2
    45    24    25    1
    46    24    45    1
    47    25    26    1
    48    26    27    2
    49    26    46    1
    50    27    47    1
    51    28    48    1
    52    28    49    1
@<TRIPOS>SUBSTRUCTURE
     1 ZINC001109404798        1 TEMP              0 ****  ****    0 ROOT


##########                                Name:    ZINC000532153088
##########                DOCK_Rotatable_Bonds:                  11
##########                         Heavy_Atoms:                  29
##########                    Molecular_Weight:             402.484
##########                DOCK_Rotatable_Bonds:                  11
##########                       Formal_Charge:          -0.0200009
##########                     HBond_Acceptors:                   6
##########                        HBond_Donors:                   1
##########                         Heavy_Atoms:                  29
##########                          Grid_Score:          -34.437737
##########                     Grid_vdw_energy:          -33.852638
##########                      Grid_es_energy:           -0.585099
##########           Internal_energy_repulsive:           19.781017

@<TRIPOS>MOLECULE
ZINC000532153088
 57 59 1 0 0
SMALL
USER_CHARGES


@<TRIPOS>ATOM
      1 C1        -11.1567   -2.2525   56.9729 C.3     1  ZINC000532153088   -0.1800
      2 C2        -11.1205   -0.9274   57.7369 C.3     1  ZINC000532153088    0.0800
      3 C3        -11.1428   -1.2051   59.2412 C.3     1  ZINC000532153088   -0.1500
      4 O4         -9.9271   -0.2165   57.4013 O.3     1  ZINC000532153088   -0.3800
      5 C5         -9.8448    0.1646   56.0265 C.3     1  ZINC000532153088    0.1000
      6 C6         -8.6112    1.0030   55.8108 C.ar    1  ZINC000532153088   -0.0700
      7 C7         -8.0700    1.7193   56.8616 C.ar    1  ZINC000532153088   -0.1000
      8 C8         -6.9382    2.4884   56.6636 C.ar    1  ZINC000532153088   -0.1100
      9 C9         -6.3478    2.5406   55.4151 C.ar    1  ZINC000532153088   -0.1200
     10 C10        -6.8886    1.8232   54.3641 C.ar    1  ZINC000532153088   -0.1000
     11 C11        -8.0175    1.0510   54.5631 C.ar    1  ZINC000532153088   -0.1100
     12 C12        -8.6070    0.2691   53.4176 C.3     1  ZINC000532153088    0.1600
     13 N13        -8.1716    0.8582   52.1488 N.am    1  ZINC000532153088   -0.7300
     14 C14        -7.1505    0.3056   51.4645 C.2     1  ZINC000532153088    0.5100
     15 O15        -6.5912   -0.6786   51.8996 O.2     1  ZINC000532153088   -0.5000
     16 C16        -6.7039    0.9105   50.1585 C.3     1  ZINC000532153088    0.0300
     17 N17        -5.6647    1.9167   50.4149 N.3     1  ZINC000532153088   -0.4800
     18 C18        -4.3261    1.3673   50.1616 C.3     1  ZINC000532153088    0.1000
     19 C19        -3.2861    2.4084   50.4862 C.ar    1  ZINC000532153088   -0.1300
     20 C20        -3.1841    2.9054   51.7716 C.ar    1  ZINC000532153088   -0.0600
     21 C21        -2.2303    3.8601   52.0710 C.ar    1  ZINC000532153088   -0.1700
     22 C22        -1.3760    4.3194   51.0831 C.ar    1  ZINC000532153088    0.1300
     23 F23        -0.4435    5.2522   51.3760 F       1  ZINC000532153088   -0.1300
     24 C24        -1.4772    3.8222   49.7950 C.ar    1  ZINC000532153088   -0.2000
     25 C25        -2.4290    2.8625   49.4977 C.ar    1  ZINC000532153088    0.1600
     26 F26        -2.5290    2.3764   48.2412 F       1  ZINC000532153088   -0.1100
     27 C27        -5.8963    3.1280   49.6167 C.3     1  ZINC000532153088    0.0200
     28 C28        -7.2007    3.8916   49.8540 C.3     1  ZINC000532153088   -0.2200
     29 C29        -5.8741    4.4713   50.3487 C.3     1  ZINC000532153088   -0.1700
     30 H30       -12.0670   -2.7947   57.2289 H       1  ZINC000532153088    0.0700
     31 H31       -11.1408   -2.0546   55.9012 H       1  ZINC000532153088    0.0600
     32 H32       -10.2880   -2.8523   57.2446 H       1  ZINC000532153088    0.0700
     33 H33       -11.9892   -0.3275   57.4652 H       1  ZINC000532153088    0.0600
     34 H34       -10.2741   -1.8048   59.5129 H       1  ZINC000532153088    0.0600
     35 H35       -11.1170   -0.2610   59.7854 H       1  ZINC000532153088    0.0600
     36 H36       -12.0530   -1.7472   59.4972 H       1  ZINC000532153088    0.0700
     37 H37        -9.7904   -0.7287   55.4044 H       1  ZINC000532153088    0.0600
     38 H38       -10.7286    0.7425   55.7561 H       1  ZINC000532153088    0.0600
     39 H39        -8.5314    1.6786   57.8372 H       1  ZINC000532153088    0.1300
     40 H40        -6.5158    3.0488   57.4846 H       1  ZINC000532153088    0.1200
     41 H41        -5.4641    3.1418   55.2603 H       1  ZINC000532153088    0.1300
     42 H42        -6.4274    1.8642   53.3884 H       1  ZINC000532153088    0.1300
     43 H43        -8.2694   -0.7659   53.4723 H       1  ZINC000532153088    0.0800
     44 H44        -9.6948    0.3001   53.4781 H       1  ZINC000532153088    0.0800
     45 H45        -8.6183    1.6461   51.8014 H       1  ZINC000532153088    0.4000
     46 H46        -6.3015    0.1285   49.5145 H       1  ZINC000532153088    0.0700
     47 H47        -7.5544    1.3836   49.6675 H       1  ZINC000532153088    0.1100
     48 H48        -4.1692    0.4893   50.7882 H       1  ZINC000532153088    0.0900
     49 H49        -4.2420    1.0845   49.1123 H       1  ZINC000532153088    0.0500
     50 H50        -3.8504    2.5480   52.5428 H       1  ZINC000532153088    0.1400
     51 H51        -2.1517    4.2482   53.0758 H       1  ZINC000532153088    0.1400
     52 H52        -0.8111    4.1799   49.0237 H       1  ZINC000532153088    0.1500
     53 H53        -5.5055    3.1025   48.5996 H       1  ZINC000532153088    0.1200
     54 H54        -7.6684    4.3688   48.9927 H       1  ZINC000532153088    0.1000
     55 H55        -7.8870    3.4953   50.6023 H       1  ZINC000532153088    0.1000
     56 H56        -5.6875    4.4563   51.4226 H       1  ZINC000532153088    0.1000
     57 H57        -5.4689    5.3298   49.8129 H       1  ZINC000532153088    0.1000
@<TRIPOS>BOND
     1     1     2    1
     2     1    30    1
     3     1    31    1
     4     1    32    1
     5     2     3    1
     6     2     4    1
     7     2    33    1
     8     3    34    1
     9     3    35    1
    10     3    36    1
    11     4     5    1
    12     5     6    1
    13     5    37    1
    14     5    38    1
    15     6    11   ar
    16     6     7   ar
    17     7     8   ar
    18     7    39    1
    19     8     9   ar
    20     8    40    1
    21     9    10   ar
    22     9    41    1
    23    10    11   ar
    24    10    42    1
    25    11    12    1
    26    12    13    1
    27    12    43    1
    28    12    44    1
    29    13    14   am
    30    13    45    1
    31    14    15    2
    32    14    16    1
    33    16    17    1
    34    16    46    1
    35    16    47    1
    36    17    18    1
    37    17    27    1
    38    18    19    1
    39    18    48    1
    40    18    49    1
    41    19    25   ar
    42    19    20   ar
    43    20    21   ar
    44    20    50    1
    45    21    22   ar
    46    21    51    1
    47    22    23    1
    48    22    24   ar
    49    24    25   ar
    50    24    52    1
    51    25    26    1
    52    27    29    1
    53    27    28    1
    54    27    53    1
    55    28    29    1
    56    28    54    1
    57    28    55    1
    58    29    56    1
    59    29    57    1
@<TRIPOS>SUBSTRUCTURE
     1 ZINC000532153088        1 TEMP              0 ****  ****    0 ROOT


##########                                Name:    ZINC000507831344
##########                DOCK_Rotatable_Bonds:                   6
##########                         Heavy_Atoms:                  31
##########                    Molecular_Weight:              422.53
##########                DOCK_Rotatable_Bonds:                   6
##########                       Formal_Charge:          -0.0200002
##########                     HBond_Acceptors:                   8
##########                        HBond_Donors:                   2
##########                         Heavy_Atoms:                  31
##########                          Grid_Score:          -34.436054
##########                     Grid_vdw_energy:          -34.482277
##########                      Grid_es_energy:            0.046224
##########           Internal_energy_repulsive:           20.521578

@<TRIPOS>MOLECULE
ZINC000507831344
 61 64 1 0 0
SMALL
USER_CHARGES


@<TRIPOS>ATOM
      1 C1        -14.5906   -0.8925   54.3714 C.3     1  ZINC000507831344   -0.1000
      2 C2        -13.2649   -0.6789   55.0555 C.ar    1  ZINC000507831344   -0.0800
      3 C3        -12.3022    0.1291   54.4793 C.ar    1  ZINC000507831344   -0.0800
      4 C4        -11.0906    0.2984   55.1478 C.ar    1  ZINC000507831344    0.0900
      5 N5        -10.0860    1.1090   54.6012 N.am    1  ZINC000507831344   -0.6700
      6 C6         -9.1962    0.5869   53.7340 C.2     1  ZINC000507831344    0.5100
      7 O7         -9.2646   -0.5844   53.4265 O.2     1  ZINC000507831344   -0.5100
      8 C8         -8.1161    1.4584   53.1464 C.3     1  ZINC000507831344   -0.1400
      9 C9         -8.3881    1.6724   51.6560 C.3     1  ZINC000507831344   -0.0500
     10 C10        -7.1237    2.1293   50.9752 C.2     1  ZINC000507831344   -0.2200
     11 C11        -6.2310    1.2191   50.5040 C.2     1  ZINC000507831344    0.2100
     12 C12        -6.4945   -0.2568   50.6565 C.3     1  ZINC000507831344   -0.1400
     13 N13        -5.0976    1.6563   49.8931 N.pl3   1  ZINC000507831344   -0.3000
     14 N14        -4.0171    0.9752   49.3198 N.am    1  ZINC000507831344   -0.5100
     15 C15        -3.1437    1.8838   48.8449 C.2     1  ZINC000507831344    0.5500
     16 O16        -2.0897    1.6352   48.2823 O.2     1  ZINC000507831344   -0.5400
     17 C17        -3.6491    3.1566   49.1053 C.2     1  ZINC000507831344   -0.3500
     18 C18        -4.8692    3.0028   49.7599 C.2     1  ZINC000507831344    0.3500
     19 N19        -5.7541    3.8914   50.2267 N.2     1  ZINC000507831344   -0.4800
     20 C20        -6.8607    3.4946   50.8173 C.2     1  ZINC000507831344    0.2500
     21 C21        -7.8431    4.5136   51.3347 C.3     1  ZINC000507831344   -0.1200
     22 C22       -10.8916   -0.3440   56.3600 C.ar    1  ZINC000507831344    0.0800
     23 N23       -11.8326   -1.1083   56.8812 N.ar    1  ZINC000507831344   -0.4900
     24 C24       -12.9966   -1.2876   56.2772 C.ar    1  ZINC000507831344    0.2800
     25 N25       -13.9593   -2.1029   56.8661 N.3     1  ZINC000507831344   -0.4800
     26 C26       -13.4910   -3.4921   56.9521 C.3     1  ZINC000507831344    0.0600
     27 C27       -14.6239   -4.3826   57.4677 C.3     1  ZINC000507831344   -0.1200
     28 C28       -15.0680   -3.8877   58.8469 C.3     1  ZINC000507831344   -0.1200
     29 C29       -15.5050   -2.4241   58.7390 C.3     1  ZINC000507831344   -0.1100
     30 C30       -14.3467   -1.5905   58.1865 C.3     1  ZINC000507831344    0.0900
     31 H31       -13.4962   -1.6556   58.8653 H       1  ZINC000507831344    0.0600
     32 C32       -14.7854   -0.1304   58.0578 C.3     1  ZINC000507831344   -0.1400
     33 H33       -15.3201   -0.1838   54.7635 H       1  ZINC000507831344    0.0700
     34 H34       -14.4749   -0.7387   53.2985 H       1  ZINC000507831344    0.0600
     35 H35       -14.9358   -1.9096   54.5575 H       1  ZINC000507831344    0.0800
     36 H36       -12.4844    0.6172   53.5334 H       1  ZINC000507831344    0.1500
     37 H37       -10.0311    2.0458   54.8472 H       1  ZINC000507831344    0.4100
     38 H38        -8.1090    2.4216   53.6564 H       1  ZINC000507831344    0.1000
     39 H39        -7.1485    0.9728   53.2731 H       1  ZINC000507831344    0.1000
     40 H40        -8.7230    0.7360   51.2096 H       1  ZINC000507831344    0.0900
     41 H41        -9.1614    2.4306   51.5330 H       1  ZINC000507831344    0.1000
     42 H42        -7.0432   -0.6195   49.7874 H       1  ZINC000507831344    0.1000
     43 H43        -5.5463   -0.7888   50.7357 H       1  ZINC000507831344    0.0800
     44 H44        -7.0843   -0.4295   51.5567 H       1  ZINC000507831344    0.1100
     45 H45        -3.9145    0.0118   49.2731 H       1  ZINC000507831344    0.4400
     46 H46        -3.1789    4.0938   48.8463 H       1  ZINC000507831344    0.1700
     47 H47        -7.4679    5.5164   51.1301 H       1  ZINC000507831344    0.0900
     48 H48        -8.8038    4.3768   50.8384 H       1  ZINC000507831344    0.1000
     49 H49        -7.9679    4.3846   52.4099 H       1  ZINC000507831344    0.0900
     50 H50        -9.9556   -0.2179   56.8836 H       1  ZINC000507831344    0.1600
     51 H51       -13.1821   -3.8331   55.9640 H       1  ZINC000507831344    0.0700
     52 H52       -12.6446   -3.5484   57.6365 H       1  ZINC000507831344    0.0500
     53 H53       -15.4655   -4.3376   56.7765 H       1  ZINC000507831344    0.0700
     54 H54       -14.2713   -5.4110   57.5462 H       1  ZINC000507831344    0.0700
     55 H55       -15.9037   -4.4923   59.1991 H       1  ZINC000507831344    0.0700
     56 H56       -14.2375   -3.9691   59.5481 H       1  ZINC000507831344    0.0600
     57 H57       -16.3605   -2.3483   58.0679 H       1  ZINC000507831344    0.0700
     58 H58       -15.7820   -2.0533   59.7258 H       1  ZINC000507831344    0.0700
     59 H59       -14.9888    0.2766   59.0483 H       1  ZINC000507831344    0.0600
     60 H60       -13.9918    0.4471   57.5837 H       1  ZINC000507831344    0.0500
     61 H61       -15.6882   -0.0746   57.4496 H       1  ZINC000507831344    0.0600
@<TRIPOS>BOND
     1     1     2    1
     2     1    33    1
     3     1    34    1
     4     1    35    1
     5     2    24   ar
     6     2     3   ar
     7     3     4   ar
     8     3    36    1
     9     4     5    1
    10     4    22   ar
    11     5     6   am
    12     5    37    1
    13     6     7    2
    14     6     8    1
    15     8     9    1
    16     8    38    1
    17     8    39    1
    18     9    10    1
    19     9    40    1
    20     9    41    1
    21    10    20    1
    22    10    11    2
    23    11    12    1
    24    11    13    1
    25    12    42    1
    26    12    43    1
    27    12    44    1
    28    13    18    1
    29    13    14    1
    30    14    15   am
    31    14    45    1
    32    15    16    2
    33    15    17    1
    34    17    18    2
    35    17    46    1
    36    18    19    1
    37    19    20    2
    38    20    21    1
    39    21    47    1
    40    21    48    1
    41    21    49    1
    42    22    23   ar
    43    22    50    1
    44    23    24   ar
    45    24    25    1
    46    25    30    1
    47    25    26    1
    48    26    27    1
    49    26    51    1
    50    26    52    1
    51    27    28    1
    52    27    53    1
    53    27    54    1
    54    28    29    1
    55    28    55    1
    56    28    56    1
    57    29    30    1
    58    29    57    1
    59    29    58    1
    60    30    31    1
    61    30    32    1
    62    32    59    1
    63    32    60    1
    64    32    61    1
@<TRIPOS>SUBSTRUCTURE
     1 ZINC000507831344        1 TEMP              0 ****  ****    0 ROOT


##########                                Name:    ZINC000980108339
##########                DOCK_Rotatable_Bonds:                   9
##########                         Heavy_Atoms:                  25
##########                    Molecular_Weight:             348.445
##########                DOCK_Rotatable_Bonds:                   9
##########                       Formal_Charge:          -0.0100001
##########                     HBond_Acceptors:                   7
##########                        HBond_Donors:                   3
##########                         Heavy_Atoms:                  25
##########                          Grid_Score:          -34.435631
##########                     Grid_vdw_energy:          -33.376244
##########                      Grid_es_energy:           -1.059386
##########           Internal_energy_repulsive:            7.013080

@<TRIPOS>MOLECULE
ZINC000980108339
 53 56 1 0 0
SMALL
USER_CHARGES


@<TRIPOS>ATOM
      1 C1         -1.9572    3.8684   49.8077 C.3     1  ZINC000980108339    0.1200
      2 N2         -2.9422    2.8035   50.0133 N.am    1  ZINC000980108339   -0.6400
      3 C3         -3.5392    2.4329   51.3051 C.3     1  ZINC000980108339    0.1100
      4 C4         -4.4914    1.2736   50.9526 C.3     1  ZINC000980108339    0.1000
      5 H5         -4.1945    0.3630   51.4729 H       1  ZINC000980108339    0.1200
      6 C6         -5.9142    1.6357   51.2931 C.2     1  ZINC000980108339    0.5000
      7 O7         -6.7235    1.8124   50.4073 O.2     1  ZINC000980108339   -0.5200
      8 N8         -6.2872    1.7628   52.5819 N.am    1  ZINC000980108339   -0.7200
      9 C9         -7.6697    2.1164   52.9129 C.3     1  ZINC000980108339    0.1300
     10 C10        -8.3327    0.9497   53.6480 C.3     1  ZINC000980108339   -0.1200
     11 H11        -7.8070    0.6716   54.5615 H       1  ZINC000980108339    0.1000
     12 C12        -9.8487    1.1231   53.8381 C.3     1  ZINC000980108339   -0.1400
     13 C13        -9.9806   -0.3755   53.5186 C.3     1  ZINC000980108339    0.1200
     14 H14       -10.8389   -0.6141   52.8906 H       1  ZINC000980108339    0.1100
     15 N15        -9.8820   -1.2379   54.6988 N.am    1  ZINC000980108339   -0.7200
     16 C16       -10.9813   -1.5067   55.4307 C.2     1  ZINC000980108339    0.5200
     17 O17       -12.0525   -1.0357   55.1115 O.2     1  ZINC000980108339   -0.5300
     18 C18       -10.8797   -2.3924   56.6458 C.3     1  ZINC000980108339   -0.1100
     19 C19       -11.9032   -1.9440   57.6909 C.3     1  ZINC000980108339   -0.1300
     20 H20       -12.1108   -0.8743   57.7169 H       1  ZINC000980108339    0.1200
     21 C21       -11.9347   -2.7022   59.0195 C.3     1  ZINC000980108339   -0.1700
     22 C22       -13.0603   -2.8960   58.0002 C.3     1  ZINC000980108339   -0.1200
     23 H23       -13.0923   -3.8418   57.4595 H       1  ZINC000980108339    0.1000
     24 C24       -14.4204   -2.2741   58.3232 C.3     1  ZINC000980108339   -0.1300
     25 C25       -15.6567   -3.1634   58.1757 C.3     1  ZINC000980108339   -0.1800
     26 C26       -15.1512   -2.7808   59.5682 C.3     1  ZINC000980108339   -0.1800
     27 C27        -8.6603   -0.2456   52.7377 C.3     1  ZINC000980108339   -0.1400
     28 N28        -4.3298    1.1142   49.4998 N.am    1  ZINC000980108339   -0.7200
     29 C29        -3.4463    2.0168   49.0535 C.2     1  ZINC000980108339    0.7000
     30 O30        -3.1242    2.1075   47.8847 O.2     1  ZINC000980108339   -0.5800
     31 H31        -1.6960    3.9226   48.7509 H       1  ZINC000980108339    0.0900
     32 H32        -2.3801    4.8211   50.1267 H       1  ZINC000980108339    0.0600
     33 H33        -1.0628    3.6538   50.3926 H       1  ZINC000980108339    0.0600
     34 H34        -2.7694    2.0979   52.0003 H       1  ZINC000980108339    0.1000
     35 H35        -4.0957    3.2713   51.7239 H       1  ZINC000980108339    0.0900
     36 H36        -5.6402    1.6202   53.2905 H       1  ZINC000980108339    0.4000
     37 H37        -7.6760    2.9991   53.5522 H       1  ZINC000980108339    0.0700
     38 H38        -8.2201    2.3279   51.9961 H       1  ZINC000980108339    0.0700
     39 H39       -10.1345    1.3788   54.8584 H       1  ZINC000980108339    0.0800
     40 H40       -10.3110    1.7706   53.0930 H       1  ZINC000980108339    0.1000
     41 H41        -9.0256   -1.6155   54.9534 H       1  ZINC000980108339    0.4000
     42 H42       -11.0803   -3.4250   56.3604 H       1  ZINC000980108339    0.1000
     43 H43        -9.8763   -2.3198   57.0654 H       1  ZINC000980108339    0.1000
     44 H44       -11.2263   -3.5205   59.1489 H       1  ZINC000980108339    0.0900
     45 H45       -12.1635   -2.1314   59.9194 H       1  ZINC000980108339    0.1000
     46 H46       -14.5264   -1.2187   58.0719 H       1  ZINC000980108339    0.1000
     47 H47       -16.5763   -2.6931   57.8273 H       1  ZINC000980108339    0.0900
     48 H48       -15.5010   -4.1914   57.8487 H       1  ZINC000980108339    0.0900
     49 H49       -14.6630   -3.5571   60.1573 H       1  ZINC000980108339    0.0900
     50 H50       -15.7382   -2.0588   60.1359 H       1  ZINC000980108339    0.0900
     51 H51        -8.7970    0.0278   51.6914 H       1  ZINC000980108339    0.1000
     52 H52        -7.9893   -1.0942   52.8703 H       1  ZINC000980108339    0.0800
     53 H53        -4.7926    0.4618   48.9510 H       1  ZINC000980108339    0.4400
@<TRIPOS>BOND
     1     1     2    1
     2     1    31    1
     3     1    32    1
     4     1    33    1
     5     2    29   am
     6     2     3    1
     7     3     4    1
     8     3    34    1
     9     3    35    1
    10     4     5    1
    11     4     6    1
    12     4    28    1
    13     6     7    2
    14     6     8   am
    15     8     9    1
    16     8    36    1
    17     9    10    1
    18     9    37    1
    19     9    38    1
    20    10    11    1
    21    10    27    1
    22    10    12    1
    23    12    13    1
    24    12    39    1
    25    12    40    1
    26    13    14    1
    27    13    15    1
    28    13    27    1
    29    15    16   am
    30    15    41    1
    31    16    17    2
    32    16    18    1
    33    18    19    1
    34    18    42    1
    35    18    43    1
    36    19    20    1
    37    19    22    1
    38    19    21    1
    39    21    22    1
    40    21    44    1
    41    21    45    1
    42    22    23    1
    43    22    24    1
    44    24    26    1
    45    24    25    1
    46    24    46    1
    47    25    26    1
    48    25    47    1
    49    25    48    1
    50    26    49    1
    51    26    50    1
    52    27    51    1
    53    27    52    1
    54    28    29   am
    55    28    53    1
    56    29    30    2
@<TRIPOS>SUBSTRUCTURE
     1 ZINC000980108339        1 TEMP              0 ****  ****    0 ROOT


##########                                Name:    ZINC000816269301
##########                DOCK_Rotatable_Bonds:                   7
##########                         Heavy_Atoms:                  25
##########                    Molecular_Weight:             358.784
##########                DOCK_Rotatable_Bonds:                   7
##########                       Formal_Charge:           0.0100002
##########                     HBond_Acceptors:                   8
##########                        HBond_Donors:                   1
##########                         Heavy_Atoms:                  25
##########                          Grid_Score:          -34.429855
##########                     Grid_vdw_energy:          -32.954292
##########                      Grid_es_energy:           -1.475563
##########           Internal_energy_repulsive:            5.826063

@<TRIPOS>MOLECULE
ZINC000816269301
 40 42 1 0 0
SMALL
USER_CHARGES


@<TRIPOS>ATOM
      1 C1         -2.0952    3.8803   50.5695 C.3     1  ZINC000816269301    0.1000
      2 N2         -2.9789    2.8172   50.0843 N.pl3   1  ZINC000816269301   -0.4000
      3 N3         -2.8928    2.1547   48.8515 N.2     1  ZINC000816269301    0.0000
      4 N4         -3.8335    1.2814   48.7662 N.2     1  ZINC000816269301   -0.2000
      5 C5         -4.5868    1.2964   49.8917 C.ar    1  ZINC000816269301   -0.0300
      6 C6         -5.7044    0.5645   50.3012 C.ar    1  ZINC000816269301    0.0500
      7 C7         -6.2697    0.8152   51.5459 C.ar    1  ZINC000816269301   -0.1400
      8 C8         -7.4500    0.0460   51.9856 C.2     1  ZINC000816269301    0.5200
      9 O9         -7.8903   -0.8440   51.2856 O.2     1  ZINC000816269301   -0.5000
     10 O10        -8.0390    0.3305   53.1634 O.3     1  ZINC000816269301   -0.3500
     11 C11        -9.2002   -0.4612   53.5280 C.3     1  ZINC000816269301    0.0500
     12 C12        -9.7238   -0.0013   54.8901 C.3     1  ZINC000816269301    0.1200
     13 N13       -10.8513   -0.8465   55.2906 N.am    1  ZINC000816269301   -0.7200
     14 C14       -11.0775   -1.0943   56.5960 C.2     1  ZINC000816269301    0.5600
     15 O15       -10.3468   -0.6151   57.4410 O.2     1  ZINC000816269301   -0.5300
     16 C16       -12.2138   -1.9484   56.9999 C.ar    1  ZINC000816269301   -0.1300
     17 C17       -13.0328   -2.5299   56.0303 C.ar    1  ZINC000816269301   -0.0700
     18 C18       -14.0918   -3.3259   56.4132 C.ar    1  ZINC000816269301   -0.1200
     19 C19       -14.3435   -3.5490   57.7569 C.ar    1  ZINC000816269301   -0.0100
     20 Cl20      -15.6781   -4.5527   58.2314 Cl      1  ZINC000816269301   -0.0600
     21 C21       -13.5345   -2.9747   58.7235 C.ar    1  ZINC000816269301   -0.1200
     22 C22       -12.4693   -2.1815   58.3526 C.ar    1  ZINC000816269301   -0.0500
     23 C23        -5.7226    1.7964   52.3859 C.ar    1  ZINC000816269301   -0.0200
     24 C24        -4.6327    2.5134   51.9918 C.ar    1  ZINC000816269301   -0.1300
     25 C25        -4.0482    2.2727   50.7507 C.ar    1  ZINC000816269301    0.1100
     26 H26        -1.2564    3.4383   51.1072 H       1  ZINC000816269301    0.0900
     27 H27        -1.7211    4.4564   49.7231 H       1  ZINC000816269301    0.1000
     28 H28        -2.6506    4.5371   51.2391 H       1  ZINC000816269301    0.1000
     29 H29        -6.1264   -0.1909   49.6547 H       1  ZINC000816269301    0.1600
     30 H30        -9.9791   -0.3313   52.7766 H       1  ZINC000816269301    0.0800
     31 H31        -8.9200   -1.5132   53.5829 H       1  ZINC000816269301    0.1000
     32 H32        -8.9285   -0.0814   55.6311 H       1  ZINC000816269301    0.1000
     33 H33       -10.0533    1.0354   54.8215 H       1  ZINC000816269301    0.0900
     34 H34       -11.4352   -1.2279   54.6163 H       1  ZINC000816269301    0.4000
     35 H35       -12.8377   -2.3565   54.9823 H       1  ZINC000816269301    0.1400
     36 H36       -14.7262   -3.7761   55.6641 H       1  ZINC000816269301    0.1400
     37 H37       -13.7357   -3.1521   59.7697 H       1  ZINC000816269301    0.1400
     38 H38       -11.8389   -1.7345   59.1071 H       1  ZINC000816269301    0.1500
     39 H39        -6.1684    1.9851   53.3514 H       1  ZINC000816269301    0.1500
     40 H40        -4.2184    3.2668   52.6455 H       1  ZINC000816269301    0.1400
@<TRIPOS>BOND
     1     1     2    1
     2     1    26    1
     3     1    27    1
     4     1    28    1
     5     2    25    1
     6     2     3    1
     7     3     4    2
     8     4     5    1
     9     5    25   ar
    10     5     6   ar
    11     6     7   ar
    12     6    29    1
    13     7     8    1
    14     7    23   ar
    15     8     9    2
    16     8    10    1
    17    10    11    1
    18    11    12    1
    19    11    30    1
    20    11    31    1
    21    12    13    1
    22    12    32    1
    23    12    33    1
    24    13    14   am
    25    13    34    1
    26    14    15    2
    27    14    16    1
    28    16    22   ar
    29    16    17   ar
    30    17    18   ar
    31    17    35    1
    32    18    19   ar
    33    18    36    1
    34    19    20    1
    35    19    21   ar
    36    21    22   ar
    37    21    37    1
    38    22    38    1
    39    23    24   ar
    40    23    39    1
    41    24    25   ar
    42    24    40    1
@<TRIPOS>SUBSTRUCTURE
     1 ZINC000816269301        1 TEMP              0 ****  ****    0 ROOT


##########                                Name:    ZINC000434204837
##########                DOCK_Rotatable_Bonds:                   7
##########                         Heavy_Atoms:                  29
##########                    Molecular_Weight:             406.511
##########                DOCK_Rotatable_Bonds:                   7
##########                       Formal_Charge:          -0.0200002
##########                     HBond_Acceptors:                   8
##########                        HBond_Donors:                   0
##########                         Heavy_Atoms:                  29
##########                          Grid_Score:          -34.409245
##########                     Grid_vdw_energy:          -34.203457
##########                      Grid_es_energy:           -0.205787
##########           Internal_energy_repulsive:           18.070864

@<TRIPOS>MOLECULE
ZINC000434204837
 51 54 1 0 0
SMALL
USER_CHARGES


@<TRIPOS>ATOM
      1 C1         -0.6138    3.2071   51.9630 C.3     1  ZINC000434204837   -0.1300
      2 C2         -0.0984    2.6992   50.6410 C.ar    1  ZINC000434204837   -0.0700
      3 C3          1.1443    2.0987   50.5684 C.ar    1  ZINC000434204837   -0.1200
      4 C4          1.6171    1.6328   49.3556 C.ar    1  ZINC000434204837   -0.1100
      5 C5          0.8470    1.7673   48.2158 C.ar    1  ZINC000434204837   -0.1300
      6 C6         -0.3965    2.3671   48.2886 C.ar    1  ZINC000434204837   -0.0900
      7 C7         -0.8711    2.8290   49.5018 C.ar    1  ZINC000434204837   -0.1000
      8 C8         -2.2265    3.4830   49.5812 C.3     1  ZINC000434204837    0.0100
      9 C9         -3.2100    2.5265   50.2047 C.2     1  ZINC000434204837    0.2000
     10 N10        -3.9575    1.6533   49.5737 N.2     1  ZINC000434204837   -0.4600
     11 C11        -4.6689    1.0283   50.5287 C.2     1  ZINC000434204837    0.1700
     12 C12        -5.6797   -0.0686   50.3141 C.3     1  ZINC000434204837   -0.0300
     13 S13        -6.7013   -0.2462   51.7977 S.3     1  ZINC000434204837    0.0900
     14 C14        -7.6253    1.2518   51.7141 C.2     1  ZINC000434204837    0.2100
     15 N15        -7.5046    2.1955   50.8053 N.2     1  ZINC000434204837   -0.3300
     16 N16        -8.3296    3.1518   51.0375 N.2     1  ZINC000434204837   -0.0200
     17 N17        -9.0269    2.8980   52.0914 N.2     1  ZINC000434204837   -0.0700
     18 N18        -8.5998    1.6475   52.5713 N.pl3   1  ZINC000434204837   -0.3100
     19 C19        -9.0733    0.9606   53.6982 C.ar    1  ZINC000434204837    0.1100
     20 C20        -8.5036    1.1904   54.9432 C.ar    1  ZINC000434204837   -0.1100
     21 C21        -8.9724    0.5125   56.0516 C.ar    1  ZINC000434204837   -0.0900
     22 C22       -10.0080   -0.3946   55.9219 C.ar    1  ZINC000434204837   -0.0600
     23 C23       -10.5173   -1.1325   57.1332 C.3     1  ZINC000434204837   -0.0600
     24 C24       -11.9424   -0.6735   57.4483 C.3     1  ZINC000434204837   -0.1500
     25 C25       -10.5164   -2.6364   56.8519 C.3     1  ZINC000434204837   -0.1500
     26 C26       -10.5775   -0.6256   54.6832 C.ar    1  ZINC000434204837   -0.1000
     27 C27       -10.1166    0.0534   53.5723 C.ar    1  ZINC000434204837   -0.0900
     28 N28        -4.3242    1.5438   51.6707 N.2     1  ZINC000434204837   -0.3600
     29 O29        -3.4830    2.4023   51.5071 O.3     1  ZINC000434204837    0.0900
     30 H30        -1.1652    2.4134   52.4670 H       1  ZINC000434204837    0.0800
     31 H31         0.2256    3.5179   52.5850 H       1  ZINC000434204837    0.0700
     32 H32        -1.2745    4.0572   51.7930 H       1  ZINC000434204837    0.0700
     33 H33         1.7461    1.9937   51.4590 H       1  ZINC000434204837    0.1300
     34 H34         2.5885    1.1642   49.2988 H       1  ZINC000434204837    0.1200
     35 H35         1.2166    1.4039   47.2683 H       1  ZINC000434204837    0.1300
     36 H36        -0.9982    2.4725   47.3980 H       1  ZINC000434204837    0.1300
     37 H37        -2.1599    4.3844   50.1904 H       1  ZINC000434204837    0.1200
     38 H38        -2.5620    3.7464   48.5781 H       1  ZINC000434204837    0.1200
     39 H39        -6.3140    0.1830   49.4641 H       1  ZINC000434204837    0.1300
     40 H40        -5.1613   -1.0066   50.1155 H       1  ZINC000434204837    0.1400
     41 H41        -7.6943    1.8983   55.0449 H       1  ZINC000434204837    0.1400
     42 H42        -8.5296    0.6909   57.0203 H       1  ZINC000434204837    0.1400
     43 H43        -9.8710   -0.9219   57.9853 H       1  ZINC000434204837    0.0800
     44 H44       -12.5886   -0.8841   56.5961 H       1  ZINC000434204837    0.0600
     45 H45       -12.3107   -1.2072   58.3244 H       1  ZINC000434204837    0.0600
     46 H46       -11.9430    0.3980   57.6487 H       1  ZINC000434204837    0.0600
     47 H47        -9.5011   -2.9635   56.6274 H       1  ZINC000434204837    0.0600
     48 H48       -10.8847   -3.1702   57.7280 H       1  ZINC000434204837    0.0600
     49 H49       -11.1627   -2.8470   55.9998 H       1  ZINC000434204837    0.0600
     50 H50       -11.3860   -1.3350   54.5851 H       1  ZINC000434204837    0.1400
     51 H51       -10.5619   -0.1274   52.6051 H       1  ZINC000434204837    0.1400
@<TRIPOS>BOND
     1     1     2    1
     2     1    30    1
     3     1    31    1
     4     1    32    1
     5     2     7   ar
     6     2     3   ar
     7     3     4   ar
     8     3    33    1
     9     4     5   ar
    10     4    34    1
    11     5     6   ar
    12     5    35    1
    13     6     7   ar
    14     6    36    1
    15     7     8    1
    16     8     9    1
    17     8    37    1
    18     8    38    1
    19     9    29    1
    20     9    10    2
    21    10    11    1
    22    11    12    1
    23    11    28    2
    24    12    13    1
    25    12    39    1
    26    12    40    1
    27    13    14    1
    28    14    18    1
    29    14    15    2
    30    15    16    1
    31    16    17    2
    32    17    18    1
    33    18    19    1
    34    19    27   ar
    35    19    20   ar
    36    20    21   ar
    37    20    41    1
    38    21    22   ar
    39    21    42    1
    40    22    23    1
    41    22    26   ar
    42    23    24    1
    43    23    25    1
    44    23    43    1
    45    24    44    1
    46    24    45    1
    47    24    46    1
    48    25    47    1
    49    25    48    1
    50    25    49    1
    51    26    27   ar
    52    26    50    1
    53    27    51    1
    54    28    29    1
@<TRIPOS>SUBSTRUCTURE
     1 ZINC000434204837        1 TEMP              0 ****  ****    0 ROOT


##########                                Name:    ZINC000417533280
##########                DOCK_Rotatable_Bonds:                   9
##########                         Heavy_Atoms:                  26
##########                    Molecular_Weight:             367.439
##########                DOCK_Rotatable_Bonds:                   9
##########                       Formal_Charge:         -0.00999999
##########                     HBond_Acceptors:                   7
##########                        HBond_Donors:                   2
##########                         Heavy_Atoms:                  26
##########                          Grid_Score:          -34.376476
##########                     Grid_vdw_energy:          -33.500145
##########                      Grid_es_energy:           -0.876330
##########           Internal_energy_repulsive:           14.581154

@<TRIPOS>MOLECULE
ZINC000417533280
 53 54 1 0 0
SMALL
USER_CHARGES


@<TRIPOS>ATOM
      1 C1        -12.8738   -2.6483   56.3964 C.3     1  ZINC000417533280   -0.1600
      2 C2        -11.5362   -2.4965   57.1234 C.3     1  ZINC000417533280   -0.1200
      3 C3        -11.0007   -1.0785   56.9153 C.3     1  ZINC000417533280   -0.1200
      4 C4        -10.4834   -0.9337   55.4827 C.3     1  ZINC000417533280   -0.1300
      5 C5         -9.6091    0.3176   55.3801 C.3     1  ZINC000417533280    0.1200
      6 N6         -9.1940    0.5106   53.9885 N.am    1  ZINC000417533280   -0.7300
      7 C7         -8.0103    1.0930   53.7130 C.2     1  ZINC000417533280    0.5200
      8 O8         -7.2880    1.4560   54.6171 O.2     1  ZINC000417533280   -0.5400
      9 C9         -7.5840    1.2932   52.2813 C.3     1  ZINC000417533280   -0.1100
     10 C10        -6.6045    2.4663   52.2003 C.3     1  ZINC000417533280   -0.1300
     11 C11        -6.2003    2.6888   50.7395 C.3     1  ZINC000417533280    0.1300
     12 N12        -5.6777    1.4277   50.1961 N.am    1  ZINC000417533280   -0.6200
     13 C13        -4.4647    1.3827   49.6103 C.2     1  ZINC000417533280    0.7100
     14 O14        -4.0436    0.3329   49.1645 O.2     1  ZINC000417533280   -0.5600
     15 N15        -3.7188    2.5014   49.5187 N.am    1  ZINC000417533280   -0.6800
     16 C16        -2.4583    2.4547   48.9099 C.ar    1  ZINC000417533280    0.1900
     17 C17        -2.3404    2.0532   47.5863 C.ar    1  ZINC000417533280   -0.1100
     18 C18        -1.0966    2.0079   46.9862 C.ar    1  ZINC000417533280   -0.1100
     19 C19         0.0325    2.3622   47.7035 C.ar    1  ZINC000417533280    0.0500
     20 F20         1.2476    2.3175   47.1146 F       1  ZINC000417533280   -0.1300
     21 C21        -0.0820    2.7638   49.0262 C.ar    1  ZINC000417533280    0.0900
     22 F22         1.0213    3.1095   49.7251 F       1  ZINC000417533280   -0.1200
     23 C23        -1.3260    2.8154   49.6279 C.ar    1  ZINC000417533280   -0.1300
     24 C24        -1.4513    3.2521   51.0648 C.3     1  ZINC000417533280   -0.1200
     25 C25        -6.5023    0.2165   50.3039 C.3     1  ZINC000417533280    0.1100
     26 C26        -6.9032    0.0217   51.7696 C.3     1  ZINC000417533280   -0.1200
     27 H27       -13.5881   -1.9279   56.7955 H       1  ZINC000417533280    0.0500
     28 H28       -12.7312   -2.4664   55.3312 H       1  ZINC000417533280    0.0500
     29 H29       -13.2554   -3.6585   56.5446 H       1  ZINC000417533280    0.0500
     30 H30       -11.6789   -2.6784   58.1886 H       1  ZINC000417533280    0.0600
     31 H31       -10.8220   -3.2168   56.7243 H       1  ZINC000417533280    0.0600
     32 H32       -11.8012   -0.3590   57.0870 H       1  ZINC000417533280    0.0700
     33 H33       -10.1870   -0.8909   57.6160 H       1  ZINC000417533280    0.0700
     34 H34        -9.8937   -1.8117   55.2189 H       1  ZINC000417533280    0.0700
     35 H35       -11.3276   -0.8442   54.7990 H       1  ZINC000417533280    0.0700
     36 H36       -10.1771    1.1861   55.7137 H       1  ZINC000417533280    0.0700
     37 H37        -8.7269    0.1970   56.0090 H       1  ZINC000417533280    0.0700
     38 H38        -9.7711    0.2192   53.2653 H       1  ZINC000417533280    0.4000
     39 H39        -8.4593    1.5082   51.6686 H       1  ZINC000417533280    0.1000
     40 H40        -7.0824    3.3665   52.5867 H       1  ZINC000417533280    0.0800
     41 H41        -5.7178    2.2415   52.7930 H       1  ZINC000417533280    0.0800
     42 H42        -7.0708    3.0022   50.1632 H       1  ZINC000417533280    0.0700
     43 H43        -5.4288    3.4570   50.6868 H       1  ZINC000417533280    0.1000
     44 H44        -4.0549    3.3389   49.8743 H       1  ZINC000417533280    0.4100
     45 H45        -3.2210    1.7761   47.0256 H       1  ZINC000417533280    0.1700
     46 H46        -1.0055    1.6951   45.9565 H       1  ZINC000417533280    0.1500
     47 H47        -1.5890    4.3325   51.1055 H       1  ZINC000417533280    0.0800
     48 H48        -2.3098    2.7589   51.5208 H       1  ZINC000417533280    0.0700
     49 H49        -0.5458    2.9805   51.6074 H       1  ZINC000417533280    0.0800
     50 H50        -7.3975    0.3282   49.6920 H       1  ZINC000417533280    0.0800
     51 H51        -5.9301   -0.6466   49.9637 H       1  ZINC000417533280    0.0800
     52 H52        -6.0136   -0.1801   52.3663 H       1  ZINC000417533280    0.0800
     53 H53        -7.5936   -0.8180   51.8494 H       1  ZINC000417533280    0.0900
@<TRIPOS>BOND
     1     1     2    1
     2     1    27    1
     3     1    28    1
     4     1    29    1
     5     2     3    1
     6     2    30    1
     7     2    31    1
     8     3     4    1
     9     3    32    1
    10     3    33    1
    11     4     5    1
    12     4    34    1
    13     4    35    1
    14     5     6    1
    15     5    36    1
    16     5    37    1
    17     6     7   am
    18     6    38    1
    19     7     8    2
    20     7     9    1
    21     9    26    1
    22     9    10    1
    23     9    39    1
    24    10    11    1
    25    10    40    1
    26    10    41    1
    27    11    12    1
    28    11    42    1
    29    11    43    1
    30    12    13   am
    31    12    25    1
    32    13    14    2
    33    13    15   am
    34    15    16    1
    35    15    44    1
    36    16    23   ar
    37    16    17   ar
    38    17    18   ar
    39    17    45    1
    40    18    19   ar
    41    18    46    1
    42    19    20    1
    43    19    21   ar
    44    21    22    1
    45    21    23   ar
    46    23    24    1
    47    24    47    1
    48    24    48    1
    49    24    49    1
    50    25    26    1
    51    25    50    1
    52    25    51    1
    53    26    52    1
    54    26    53    1
@<TRIPOS>SUBSTRUCTURE
     1 ZINC000417533280        1 TEMP              0 ****  ****    0 ROOT


##########                                Name:    ZINC000991934963
##########                DOCK_Rotatable_Bonds:                   8
##########                         Heavy_Atoms:                  27
##########                    Molecular_Weight:             370.495
##########                DOCK_Rotatable_Bonds:                   8
##########                       Formal_Charge:          -0.0499997
##########                     HBond_Acceptors:                   6
##########                        HBond_Donors:                   1
##########                         Heavy_Atoms:                  27
##########                          Grid_Score:          -34.364059
##########                     Grid_vdw_energy:          -34.180199
##########                      Grid_es_energy:           -0.183859
##########           Internal_energy_repulsive:           12.210615

@<TRIPOS>MOLECULE
ZINC000991934963
 57 61 1 0 0
SMALL
USER_CHARGES


@<TRIPOS>ATOM
      1 C1          0.1807    1.9883   47.0084 C.3     1  ZINC000991934963    0.0400
      2 O2         -1.1879    1.5939   47.1253 O.3     1  ZINC000991934963   -0.2900
      3 C3         -1.9034    2.1472   48.1336 C.ar    1  ZINC000991934963    0.5000
      4 N4         -1.2940    2.9455   48.9949 N.ar    1  ZINC000991934963   -0.5700
      5 C5         -1.9629    3.5024   49.9914 C.ar    1  ZINC000991934963    0.1900
      6 C6         -3.3169    3.2405   50.1259 C.ar    1  ZINC000991934963   -0.2700
      7 C7         -3.9230    2.3996   49.2056 C.ar    1  ZINC000991934963    0.2200
      8 C8         -5.3930    2.0856   49.3116 C.3     1  ZINC000991934963    0.1000
      9 N9         -5.8070    2.1491   50.7197 N.3     1  ZINC000991934963   -0.4900
     10 C10        -5.4294    0.8960   51.4470 C.3     1  ZINC000991934963    0.0400
     11 C11        -6.7266    0.3804   52.1455 C.3     1  ZINC000991934963   -0.1400
     12 C12        -7.5370    1.6698   52.2598 C.3     1  ZINC000991934963    0.1700
     13 N13        -7.0642    2.5306   53.3469 N.am    1  ZINC000991934963   -0.7000
     14 C14        -7.2708    2.1713   54.6293 C.2     1  ZINC000991934963    0.5200
     15 O15        -7.8493    1.1361   54.8834 O.2     1  ZINC000991934963   -0.5300
     16 C16        -6.7829    3.0560   55.7476 C.3     1  ZINC000991934963   -0.1100
     17 C17        -7.7634    2.9837   56.9199 C.3     1  ZINC000991934963   -0.1300
     18 H18        -8.8197    3.0128   56.6518 H       1  ZINC000991934963    0.1200
     19 C19        -7.3485    3.6554   58.2304 C.3     1  ZINC000991934963   -0.1700
     20 C20        -7.3635    2.1285   58.1238 C.3     1  ZINC000991934963   -0.1200
     21 H21        -6.4017    1.6175   58.0810 H       1  ZINC000991934963    0.1000
     22 C22        -8.4763    1.3798   58.8602 C.3     1  ZINC000991934963   -0.1200
     23 C23        -8.0688    0.1975   59.7416 C.3     1  ZINC000991934963   -0.1800
     24 C24        -8.5260    1.5087   60.3839 C.3     1  ZINC000991934963   -0.1800
     25 C25        -9.0582    1.6164   52.1678 C.3     1  ZINC000991934963   -0.1200
     26 C26        -9.4038    2.9942   51.5217 C.3     1  ZINC000991934963   -0.1200
     27 C27        -8.1366    3.4189   50.7191 C.3     1  ZINC000991934963   -0.1000
     28 C28        -7.2226    2.2459   50.8313 C.3     1  ZINC000991934963    0.0500
     29 H29        -7.6228    1.4879   50.1578 H       1  ZINC000991934963    0.0400
     30 N30        -3.1960    1.8804   48.2300 N.ar    1  ZINC000991934963   -0.5000
     31 H31         0.7134    1.7274   47.9229 H       1  ZINC000991934963    0.0600
     32 H32         0.6364    1.4730   46.1629 H       1  ZINC000991934963    0.1100
     33 H33         0.2361    3.0654   46.8502 H       1  ZINC000991934963    0.0600
     34 H34        -1.4597    4.1529   50.6916 H       1  ZINC000991934963    0.1700
     35 H35        -3.8873    3.6814   50.9301 H       1  ZINC000991934963    0.1500
     36 H36        -5.9626    2.8125   48.7323 H       1  ZINC000991934963    0.1000
     37 H37        -5.5798    1.0846   48.9228 H       1  ZINC000991934963    0.0600
     38 H38        -5.0632    0.1503   50.7413 H       1  ZINC000991934963    0.0600
     39 H39        -4.6643    1.1128   52.1926 H       1  ZINC000991934963    0.0800
     40 H40        -7.2415   -0.3522   51.5240 H       1  ZINC000991934963    0.0800
     41 H41        -6.5042   -0.0310   53.1302 H       1  ZINC000991934963    0.0900
     42 H42        -6.6026    3.3592   53.1437 H       1  ZINC000991934963    0.4000
     43 H43        -5.7996    2.7185   56.0751 H       1  ZINC000991934963    0.1000
     44 H44        -6.7148    4.0846   55.3938 H       1  ZINC000991934963    0.0900
     45 H45        -6.3770    4.1488   58.2574 H       1  ZINC000991934963    0.0900
     46 H46        -8.1317    4.1261   58.8247 H       1  ZINC000991934963    0.1000
     47 H47        -9.4259    1.3089   58.3297 H       1  ZINC000991934963    0.1000
     48 H48        -8.7504   -0.6517   59.7912 H       1  ZINC000991934963    0.0900
     49 H49        -7.0080   -0.0469   59.7970 H       1  ZINC000991934963    0.0900
     50 H50        -7.7661    2.1269   60.8618 H       1  ZINC000991934963    0.0900
     51 H51        -9.5084    1.5222   60.8560 H       1  ZINC000991934963    0.0900
     52 H52        -9.3789    0.7961   51.5257 H       1  ZINC000991934963    0.0800
     53 H53        -9.5036    1.5308   53.1590 H       1  ZINC000991934963    0.0800
     54 H54       -10.2565    2.8914   50.8507 H       1  ZINC000991934963    0.0700
     55 H55        -9.6213    3.7289   52.2970 H       1  ZINC000991934963    0.0700
     56 H56        -8.3908    3.6060   49.6758 H       1  ZINC000991934963    0.0700
     57 H57        -7.6804    4.3022   51.1659 H       1  ZINC000991934963    0.0700
@<TRIPOS>BOND
     1     1     2    1
     2     1    31    1
     3     1    32    1
     4     1    33    1
     5     2     3    1
     6     3    30   ar
     7     3     4   ar
     8     4     5   ar
     9     5     6   ar
    10     5    34    1
    11     6     7   ar
    12     6    35    1
    13     7     8    1
    14     7    30   ar
    15     8     9    1
    16     8    36    1
    17     8    37    1
    18     9    28    1
    19     9    10    1
    20    10    11    1
    21    10    38    1
    22    10    39    1
    23    11    12    1
    24    11    40    1
    25    11    41    1
    26    12    28    1
    27    12    13    1
    28    12    25    1
    29    13    14   am
    30    13    42    1
    31    14    15    2
    32    14    16    1
    33    16    17    1
    34    16    43    1
    35    16    44    1
    36    17    18    1
    37    17    20    1
    38    17    19    1
    39    19    20    1
    40    19    45    1
    41    19    46    1
    42    20    21    1
    43    20    22    1
    44    22    24    1
    45    22    23    1
    46    22    47    1
    47    23    24    1
    48    23    48    1
    49    23    49    1
    50    24    50    1
    51    24    51    1
    52    25    26    1
    53    25    52    1
    54    25    53    1
    55    26    27    1
    56    26    54    1
    57    26    55    1
    58    27    28    1
    59    27    56    1
    60    27    57    1
    61    28    29    1
@<TRIPOS>SUBSTRUCTURE
     1 ZINC000991934963        1 TEMP              0 ****  ****    0 ROOT


##########                                Name:    ZINC000284209281
##########                DOCK_Rotatable_Bonds:                   8
##########                         Heavy_Atoms:                  26
##########                    Molecular_Weight:             353.424
##########                DOCK_Rotatable_Bonds:                   8
##########                       Formal_Charge:          0.00999954
##########                     HBond_Acceptors:                   7
##########                        HBond_Donors:                   1
##########                         Heavy_Atoms:                  26
##########                          Grid_Score:          -34.335075
##########                     Grid_vdw_energy:          -34.163601
##########                      Grid_es_energy:           -0.171473
##########           Internal_energy_repulsive:           13.568193

@<TRIPOS>MOLECULE
ZINC000284209281
 49 51 1 0 0
SMALL
USER_CHARGES


@<TRIPOS>ATOM
      1 O1        -10.2719    1.2468   53.3025 O.2     1  <0>        -0.5100
      2 C2         -9.2645    0.6081   53.5257 C.2     1  <0>         0.5100
      3 N3         -8.8355    0.4476   54.7932 N.am    1  <0>        -0.7000
      4 C4         -9.5817    1.0494   55.9009 C.3     1  <0>         0.1200
      5 C5        -10.3855   -0.0342   56.6227 C.3     1  <0>        -0.1000
      6 C6         -9.8124   -0.2517   57.9993 C.ar    1  <0>        -0.0400
      7 C7         -8.4438   -0.1977   58.2149 C.ar    1  <0>        -0.1700
      8 C8         -7.9545   -0.4024   59.4911 C.ar    1  <0>         0.1000
      9 N9         -8.7725   -0.6469   60.4959 N.ar    1  <0>        -0.4900
     10 C10       -10.0792   -0.7055   60.3279 C.ar    1  <0>         0.1000
     11 C11       -10.6413   -0.5051   59.0813 C.ar    1  <0>        -0.1700
     12 C12        -8.5032   -0.0059   52.3957 C.2     1  <0>         0.5100
     13 O13        -8.9521   -0.9729   51.8161 O.2     1  <0>        -0.5200
     14 N14        -7.3178    0.5144   52.0204 N.am    1  <0>        -0.5800
     15 C15        -6.5551   -0.0706   50.9073 C.3     1  <0>         0.0800
     16 C16        -6.1832    1.0497   49.9302 C.3     1  <0>         0.0400
     17 N17        -5.4937    2.1224   50.6596 N.3     1  <0>        -0.5300
     18 C18        -4.9687    3.1352   49.7340 C.3     1  <0>         0.1000
     19 C19        -3.5117    2.8614   49.4636 C.ar    1  <0>         0.1300
     20 C20        -2.5840    3.0441   50.4713 C.ar    1  <0>        -0.1500
     21 C21        -1.2458    2.7888   50.2122 C.ar    1  <0>        -0.0700
     22 C22        -0.8900    2.3576   48.9436 C.ar    1  <0>        -0.1700
     23 C23        -1.8737    2.1975   47.9860 C.ar    1  <0>         0.1000
     24 N24        -3.1375    2.4450   48.2695 N.ar    1  <0>        -0.4800
     25 C25        -6.3729    2.7335   51.6652 C.3     1  <0>         0.0400
     26 C26        -6.7555    1.6859   52.7094 C.3     1  <0>         0.1100
     27 H27        -8.0325   -0.0665   54.9720 H       1  <0>         0.4100
     28 H28        -8.8846    1.5111   56.6002 H       1  <0>         0.0800
     29 H29       -10.2614    1.8074   55.5117 H       1  <0>         0.0800
     30 H30       -11.4255    0.2810   56.7078 H       1  <0>         0.0900
     31 H31       -10.3328   -0.9638   56.0559 H       1  <0>         0.0900
     32 H32        -7.7685    0.0015   57.3958 H       1  <0>         0.1400
     33 H33        -6.8897   -0.3619   59.6674 H       1  <0>         0.1600
     34 H34       -10.7176   -0.9085   61.1750 H       1  <0>         0.1600
     35 H35       -11.7121   -0.5540   58.9502 H       1  <0>         0.1400
     36 H36        -5.6482   -0.5382   51.2906 H       1  <0>         0.0800
     37 H37        -7.1660   -0.8146   50.3959 H       1  <0>         0.1400
     38 H38        -5.5247    0.6542   49.1568 H       1  <0>         0.0900
     39 H39        -7.0882    1.4463   49.4699 H       1  <0>         0.0400
     40 H40        -5.5258    3.0956   48.7980 H       1  <0>         0.0900
     41 H41        -5.0760    4.1244   50.1791 H       1  <0>         0.0600
     42 H42        -2.8971    3.3817   51.4482 H       1  <0>         0.1400
     43 H43        -0.4986    2.9232   50.9803 H       1  <0>         0.1400
     44 H44         0.1429    2.1497   48.7065 H       1  <0>         0.1400
     45 H45        -1.6047    1.8623   46.9953 H       1  <0>         0.1600
     46 H46        -5.8521    3.5590   52.1502 H       1  <0>         0.1000
     47 H47        -7.2754    3.1067   51.1809 H       1  <0>         0.0400
     48 H48        -7.4969    2.1024   53.3914 H       1  <0>         0.1000
     49 H49        -5.8691    1.3844   53.2675 H       1  <0>         0.0800
@<TRIPOS>BOND
     1     1     2    2
     2     2     3   am
     3     2    12    1
     4     3     4    1
     5     3    27    1
     6     4     5    1
     7     4    28    1
     8     4    29    1
     9     5     6    1
    10     5    30    1
    11     5    31    1
    12     6    11   ar
    13     6     7   ar
    14     7     8   ar
    15     7    32    1
    16     8     9   ar
    17     8    33    1
    18     9    10   ar
    19    10    11   ar
    20    10    34    1
    21    11    35    1
    22    12    13    2
    23    12    14   am
    24    14    26    1
    25    14    15    1
    26    15    16    1
    27    15    36    1
    28    15    37    1
    29    16    17    1
    30    16    38    1
    31    16    39    1
    32    17    18    1
    33    17    25    1
    34    18    19    1
    35    18    40    1
    36    18    41    1
    37    19    24   ar
    38    19    20   ar
    39    20    21   ar
    40    20    42    1
    41    21    22   ar
    42    21    43    1
    43    22    23   ar
    44    22    44    1
    45    23    24   ar
    46    23    45    1
    47    25    26    1
    48    25    46    1
    49    25    47    1
    50    26    48    1
    51    26    49    1
@<TRIPOS>SUBSTRUCTURE
     1 <0>         1 TEMP              0 ****  ****    0 ROOT


##########                                Name:    ZINC000766421809
##########                DOCK_Rotatable_Bonds:                   7
##########                         Heavy_Atoms:                  26
##########                    Molecular_Weight:             358.372
##########                DOCK_Rotatable_Bonds:                   7
##########                       Formal_Charge:         4.61936e-07
##########                     HBond_Acceptors:                   8
##########                        HBond_Donors:                   0
##########                         Heavy_Atoms:                  26
##########                          Grid_Score:          -34.322124
##########                     Grid_vdw_energy:          -34.000416
##########                      Grid_es_energy:           -0.321710
##########           Internal_energy_repulsive:            5.033030

@<TRIPOS>MOLECULE
ZINC000766421809
 45 47 1 0 0
SMALL
USER_CHARGES


@<TRIPOS>ATOM
      1 C1         -7.9267   -0.0137   60.5323 C.3     1  ZINC000766421809   -0.0700
      2 C2         -8.8730   -0.4932   59.4618 C.2     1  ZINC000766421809    0.0700
      3 N3         -9.7601   -1.4459   59.5927 N.2     1  ZINC000766421809   -0.2900
      4 N4        -10.4355   -1.5855   58.3735 N.pl3   1  ZINC000766421809   -0.3700
      5 C5        -11.5087   -2.5407   58.0872 C.3     1  ZINC000766421809    0.1000
      6 C6         -9.9228   -0.6849   57.5091 C.2     1  ZINC000766421809    0.0700
      7 C7        -10.3517   -0.4821   56.0787 C.3     1  ZINC000766421809    0.1400
      8 O8         -9.2143   -0.0435   55.2900 O.3     1  ZINC000766421809   -0.3400
      9 C9         -9.4472    0.2661   54.0048 C.2     1  ZINC000766421809    0.4700
     10 O10       -10.5649    0.1768   53.5547 O.2     1  ZINC000766421809   -0.5000
     11 C11        -8.3144    0.7253   53.1233 C.3     1  ZINC000766421809   -0.1100
     12 C12        -8.1082   -0.2830   51.9912 C.3     1  ZINC000766421809   -0.0200
     13 C13        -6.9078    0.1185   51.1733 C.2     1  ZINC000766421809    0.1900
     14 N14        -6.0021    1.0047   51.5044 N.2     1  ZINC000766421809   -0.4700
     15 C15        -5.1262    1.0313   50.4744 C.2     1  ZINC000766421809    0.2200
     16 C16        -3.9138    1.8804   50.3706 C.ar    1  ZINC000766421809   -0.0300
     17 C17        -3.2714    2.0340   49.1437 C.ar    1  ZINC000766421809   -0.0500
     18 C18        -2.1446    2.8249   49.0514 C.ar    1  ZINC000766421809   -0.1500
     19 C19        -1.6515    3.4655   50.1766 C.ar    1  ZINC000766421809    0.1200
     20 F20        -0.5477    4.2387   50.0821 F       1  ZINC000766421809   -0.1300
     21 C21        -2.2876    3.3158   51.3987 C.ar    1  ZINC000766421809   -0.1200
     22 C22        -1.7472    4.0158   52.6190 C.3     1  ZINC000766421809   -0.1200
     23 C23        -3.4177    2.5312   51.4988 C.ar    1  ZINC000766421809   -0.0600
     24 N24        -5.5477    0.1678   49.5871 N.2     1  ZINC000766421809   -0.3700
     25 O25        -6.5643   -0.3671   49.9762 O.3     1  ZINC000766421809    0.0900
     26 C26        -8.9585    0.0075   58.1586 C.2     1  ZINC000766421809   -0.2400
     27 H27        -8.3972    0.7889   61.1002 H       1  ZINC000766421809    0.0800
     28 H28        -7.6865   -0.8398   61.2016 H       1  ZINC000766421809    0.0700
     29 H29        -7.0120    0.3567   60.0694 H       1  ZINC000766421809    0.0800
     30 H30       -12.4713   -2.0872   58.3232 H       1  ZINC000766421809    0.0800
     31 H31       -11.4832   -2.8102   57.0312 H       1  ZINC000766421809    0.0900
     32 H32       -11.3702   -3.4356   58.6939 H       1  ZINC000766421809    0.0900
     33 H33       -10.7320   -1.4213   55.6769 H       1  ZINC000766421809    0.0900
     34 H34       -11.1355    0.2743   56.0382 H       1  ZINC000766421809    0.0900
     35 H35        -8.5548    1.7012   52.7014 H       1  ZINC000766421809    0.1200
     36 H36        -7.4014    0.7998   53.7142 H       1  ZINC000766421809    0.1200
     37 H37        -7.9451   -1.2747   52.4131 H       1  ZINC000766421809    0.1200
     38 H38        -8.9926   -0.3001   51.3543 H       1  ZINC000766421809    0.1200
     39 H39        -3.6549    1.5345   48.2662 H       1  ZINC000766421809    0.1500
     40 H40        -1.6461    2.9446   48.1009 H       1  ZINC000766421809    0.1500
     41 H41        -2.2065    5.0003   52.7063 H       1  ZINC000766421809    0.0800
     42 H42        -1.9774    3.4274   53.5072 H       1  ZINC000766421809    0.0800
     43 H43        -0.6667    4.1257   52.5260 H       1  ZINC000766421809    0.0700
     44 H44        -3.9128    2.4150   52.4516 H       1  ZINC000766421809    0.1400
     45 H45        -8.3570    0.8020   57.7423 H       1  ZINC000766421809    0.1500
@<TRIPOS>BOND
     1     1     2    1
     2     1    27    1
     3     1    28    1
     4     1    29    1
     5     2    26    1
     6     2     3    2
     7     3     4    1
     8     4     5    1
     9     4     6    1
    10     5    30    1
    11     5    31    1
    12     5    32    1
    13     6     7    1
    14     6    26    2
    15     7     8    1
    16     7    33    1
    17     7    34    1
    18     8     9    1
    19     9    10    2
    20     9    11    1
    21    11    12    1
    22    11    35    1
    23    11    36    1
    24    12    13    1
    25    12    37    1
    26    12    38    1
    27    13    25    1
    28    13    14    2
    29    14    15    1
    30    15    16    1
    31    15    24    2
    32    16    23   ar
    33    16    17   ar
    34    17    18   ar
    35    17    39    1
    36    18    19   ar
    37    18    40    1
    38    19    20    1
    39    19    21   ar
    40    21    22    1
    41    21    23   ar
    42    22    41    1
    43    22    42    1
    44    22    43    1
    45    23    44    1
    46    24    25    1
    47    26    45    1
@<TRIPOS>SUBSTRUCTURE
     1 ZINC000766421809        1 TEMP              0 ****  ****    0 ROOT


##########                                Name:    ZINC000523863446
##########                DOCK_Rotatable_Bonds:                  10
##########                         Heavy_Atoms:                  29
##########                    Molecular_Weight:             396.533
##########                DOCK_Rotatable_Bonds:                  10
##########                       Formal_Charge:          -0.0200008
##########                     HBond_Acceptors:                   6
##########                        HBond_Donors:                   1
##########                         Heavy_Atoms:                  29
##########                          Grid_Score:          -34.294930
##########                     Grid_vdw_energy:          -33.546448
##########                      Grid_es_energy:           -0.748482
##########           Internal_energy_repulsive:           22.970203

@<TRIPOS>MOLECULE
ZINC000523863446
 61 63 1 0 0
SMALL
USER_CHARGES


@<TRIPOS>ATOM
      1 C1         -8.6985   -0.2599   52.2517 C.3     1  ZINC000523863446   -0.1700
      2 C2         -7.6847    0.8380   52.5799 C.3     1  ZINC000523863446    0.1500
      3 H3         -6.6767    0.4717   52.3854 H       1  ZINC000523863446    0.1300
      4 C4         -7.9553    2.0452   51.7194 C.2     1  ZINC000523863446    0.5100
      5 O5         -8.7394    2.8921   52.0921 O.2     1  ZINC000523863446   -0.5100
      6 N6         -7.3260    2.1837   50.5357 N.am    1  ZINC000523863446   -0.6000
      7 C7         -7.5876    3.3581   49.6999 C.3     1  ZINC000523863446    0.0700
      8 C8         -6.3802    1.1596   50.0847 C.3     1  ZINC000523863446    0.1000
      9 C9         -4.9890    1.5297   50.5304 C.2     1  ZINC000523863446    0.5000
     10 O10        -4.5231    1.0369   51.5359 O.2     1  ZINC000523863446   -0.5200
     11 N11        -4.2626    2.4083   49.8116 N.am    1  ZINC000523863446   -0.7200
     12 C12        -2.9094    2.7667   50.2439 C.3     1  ZINC000523863446    0.1900
     13 H13        -2.6477    2.1923   51.1325 H       1  ZINC000523863446    0.1000
     14 C14        -2.8569    4.2609   50.5688 C.3     1  ZINC000523863446   -0.1200
     15 C15        -3.4702    4.5046   51.9491 C.3     1  ZINC000523863446   -0.0900
     16 C16        -2.4074    4.2790   53.0264 C.3     1  ZINC000523863446   -0.1200
     17 C17        -3.0206    4.5227   54.4068 C.3     1  ZINC000523863446   -0.1200
     18 C18        -3.5339    5.9616   54.4901 C.3     1  ZINC000523863446   -0.1200
     19 C19        -4.5966    6.1872   53.4128 C.3     1  ZINC000523863446   -0.1200
     20 C20        -3.9834    5.9436   52.0325 C.3     1  ZINC000523863446   -0.1100
     21 C21        -1.9311    2.4581   49.1399 C.ar    1  ZINC000523863446   -0.0900
     22 C22        -0.5718    2.5278   49.3814 C.ar    1  ZINC000523863446   -0.1100
     23 C23         0.3255    2.2446   48.3687 C.ar    1  ZINC000523863446   -0.1200
     24 C24        -0.1366    1.8914   47.1146 C.ar    1  ZINC000523863446   -0.1200
     25 C25        -1.4959    1.8207   46.8734 C.ar    1  ZINC000523863446   -0.1200
     26 C26        -2.3931    2.0997   47.8873 C.ar    1  ZINC000523863446   -0.1000
     27 N27        -7.8056    1.2080   53.9923 N.pl3   1  ZINC000523863446   -0.3600
     28 C28        -6.8211    1.7056   54.7697 C.2     1  ZINC000523863446    0.0600
     29 C29        -7.3358    1.9144   56.0037 C.2     1  ZINC000523863446   -0.2700
     30 C30        -8.6807    1.5311   55.9796 C.2     1  ZINC000523863446    0.0500
     31 N31        -8.9650    1.1132   54.7727 N.2     1  ZINC000523863446   -0.2900
     32 H32        -9.7065    0.1064   52.4463 H       1  ZINC000523863446    0.0700
     33 H33        -8.6085   -0.5351   51.2009 H       1  ZINC000523863446    0.1000
     34 H34        -8.5028   -1.1331   52.8740 H       1  ZINC000523863446    0.0800
     35 H35        -6.8866    4.1516   49.9585 H       1  ZINC000523863446    0.0700
     36 H36        -7.4639    3.0918   48.6502 H       1  ZINC000523863446    0.0800
     37 H37        -8.6071    3.7045   49.8691 H       1  ZINC000523863446    0.0800
     38 H38        -6.6553    0.1965   50.5147 H       1  ZINC000523863446    0.1100
     39 H39        -6.4078    1.0933   48.9971 H       1  ZINC000523863446    0.1100
     40 H40        -4.6356    2.8034   49.0081 H       1  ZINC000523863446    0.4000
     41 H41        -1.8199    4.5968   50.5675 H       1  ZINC000523863446    0.0800
     42 H42        -3.4195    4.8160   49.8182 H       1  ZINC000523863446    0.0700
     43 H43        -4.2986    3.8138   52.1058 H       1  ZINC000523863446    0.0700
     44 H44        -2.0418    3.2539   52.9671 H       1  ZINC000523863446    0.0600
     45 H45        -1.5789    4.9699   52.8698 H       1  ZINC000523863446    0.0600
     46 H46        -3.8491    3.8318   54.5635 H       1  ZINC000523863446    0.0600
     47 H47        -2.2635    4.3620   55.1743 H       1  ZINC000523863446    0.0600
     48 H48        -3.9707    6.1352   55.4735 H       1  ZINC000523863446    0.0600
     49 H49        -2.7054    6.6525   54.3335 H       1  ZINC000523863446    0.0600
     50 H50        -5.4251    5.4963   53.5694 H       1  ZINC000523863446    0.0600
     51 H51        -4.9622    7.2123   53.4722 H       1  ZINC000523863446    0.0600
     52 H52        -3.1550    6.6344   51.8759 H       1  ZINC000523863446    0.0600
     53 H53        -4.7405    6.1043   51.2651 H       1  ZINC000523863446    0.0600
     54 H54        -0.2109    2.8037   50.3611 H       1  ZINC000523863446    0.1200
     55 H55         1.3874    2.2998   48.5571 H       1  ZINC000523863446    0.1200
     56 H56         0.5645    1.6708   46.3233 H       1  ZINC000523863446    0.1200
     57 H57        -1.8568    1.5451   45.8936 H       1  ZINC000523863446    0.1200
     58 H58        -3.4552    2.0446   47.6988 H       1  ZINC000523863446    0.1200
     59 H59        -5.8046    1.9018   54.4622 H       1  ZINC000523863446    0.1700
     60 H60        -6.8021    2.3069   56.8566 H       1  ZINC000523863446    0.1500
     61 H61        -9.3672    1.5770   56.8120 H       1  ZINC000523863446    0.1800
@<TRIPOS>BOND
     1     1     2    1
     2     1    32    1
     3     1    33    1
     4     1    34    1
     5     2     3    1
     6     2     4    1
     7     2    27    1
     8     4     5    2
     9     4     6   am
    10     6     7    1
    11     6     8    1
    12     7    35    1
    13     7    36    1
    14     7    37    1
    15     8     9    1
    16     8    38    1
    17     8    39    1
    18     9    10    2
    19     9    11   am
    20    11    12    1
    21    11    40    1
    22    12    13    1
    23    12    14    1
    24    12    21    1
    25    14    15    1
    26    14    41    1
    27    14    42    1
    28    15    20    1
    29    15    16    1
    30    15    43    1
    31    16    17    1
    32    16    44    1
    33    16    45    1
    34    17    18    1
    35    17    46    1
    36    17    47    1
    37    18    19    1
    38    18    48    1
    39    18    49    1
    40    19    20    1
    41    19    50    1
    42    19    51    1
    43    20    52    1
    44    20    53    1
    45    21    26   ar
    46    21    22   ar
    47    22    23   ar
    48    22    54    1
    49    23    24   ar
    50    23    55    1
    51    24    25   ar
    52    24    56    1
    53    25    26   ar
    54    25    57    1
    55    26    58    1
    56    27    31    1
    57    27    28    1
    58    28    29    2
    59    28    59    1
    60    29    30    1
    61    29    60    1
    62    30    31    2
    63    30    61    1
@<TRIPOS>SUBSTRUCTURE
     1 ZINC000523863446        1 TEMP              0 ****  ****    0 ROOT


##########                                Name:    ZINC000020646552
##########                DOCK_Rotatable_Bonds:                   5
##########                         Heavy_Atoms:                  29
##########                    Molecular_Weight:             412.556
##########                DOCK_Rotatable_Bonds:                   5
##########                       Formal_Charge:          -0.0200012
##########                     HBond_Acceptors:                   7
##########                        HBond_Donors:                   0
##########                         Heavy_Atoms:                  29
##########                          Grid_Score:          -34.244202
##########                     Grid_vdw_energy:          -33.456799
##########                      Grid_es_energy:           -0.787402
##########           Internal_energy_repulsive:           13.022424

@<TRIPOS>MOLECULE
ZINC000020646552
 57 60 1 0 0
SMALL
USER_CHARGES


@<TRIPOS>ATOM
      1 C1         -4.8521    2.2139   66.5539 C.3     1  ZINC000020646552    0.0200
      2 N2         -6.2758    2.0214   66.2469 N.3     1  ZINC000020646552   -0.5400
      3 C3         -6.7551    0.7309   66.7595 C.3     1  ZINC000020646552    0.0400
      4 C4         -8.2748    0.6469   66.5815 C.3     1  ZINC000020646552    0.1200
      5 N5         -8.5954    0.9137   65.1711 N.am    1  ZINC000020646552   -0.6100
      6 C6         -9.3820    0.0736   64.4695 C.2     1  ZINC000020646552    0.5300
      7 O7         -9.8369   -0.9171   65.0010 O.2     1  ZINC000020646552   -0.5200
      8 C8         -9.6962    0.3653   63.0248 C.3     1  ZINC000020646552   -0.1500
      9 S9         -8.4217   -0.3691   61.9700 S.3     1  ZINC000020646552    0.0500
     10 C10        -9.2726   -0.3839   60.4272 C.ar    1  ZINC000020646552    0.1500
     11 N11       -10.3962   -1.0784   60.2834 N.ar    1  ZINC000020646552   -0.5200
     12 C12       -11.0367   -1.0901   59.1227 C.ar    1  ZINC000020646552    0.3800
     13 C13       -12.2899   -1.8733   58.9961 C.ar    1  ZINC000020646552   -0.0500
     14 C14       -12.5004   -2.6808   57.8799 C.ar    1  ZINC000020646552   -0.0700
     15 C15       -13.6682   -3.4078   57.7677 C.ar    1  ZINC000020646552   -0.1300
     16 C16       -14.6287   -3.3359   58.7604 C.ar    1  ZINC000020646552   -0.1000
     17 C17       -14.4254   -2.5357   59.8703 C.ar    1  ZINC000020646552   -0.1300
     18 C18       -13.2589   -1.8088   59.9958 C.ar    1  ZINC000020646552   -0.0700
     19 N19       -10.5854   -0.4193   58.0729 N.ar    1  ZINC000020646552   -0.5200
     20 C20        -9.4689    0.2942   58.1469 C.ar    1  ZINC000020646552    0.2100
     21 C21        -8.7783    0.3402   59.3362 C.ar    1  ZINC000020646552   -0.2100
     22 C22        -7.5140    1.1400   59.4879 C.3     1  ZINC000020646552    0.1100
     23 O23        -6.9909    1.4825   58.2039 O.3     1  ZINC000020646552   -0.3600
     24 C24        -7.9595    2.0942   57.3447 C.3     1  ZINC000020646552    0.1100
     25 C25        -8.6682    3.2252   58.0928 C.3     1  ZINC000020646552   -0.1800
     26 C26        -7.2631    2.6564   56.1038 C.3     1  ZINC000020646552   -0.1400
     27 C27        -8.9846    1.0385   56.9305 C.3     1  ZINC000020646552   -0.0900
     28 C28        -8.0353    2.1219   64.5466 C.3     1  ZINC000020646552    0.1100
     29 C29        -6.5251    2.1477   64.8048 C.3     1  ZINC000020646552    0.0400
     30 H30        -4.5420    3.2077   66.2314 H       1  ZINC000020646552    0.0700
     31 H31        -4.6955    2.1151   67.6281 H       1  ZINC000020646552    0.0700
     32 H32        -4.2626    1.4614   66.0301 H       1  ZINC000020646552    0.0300
     33 H33        -6.2789   -0.0794   66.2073 H       1  ZINC000020646552    0.0400
     34 H34        -6.5075    0.6451   67.8176 H       1  ZINC000020646552    0.0900
     35 H35        -8.6208   -0.3502   66.8533 H       1  ZINC000020646552    0.1000
     36 H36        -8.7593    1.3907   67.2141 H       1  ZINC000020646552    0.0800
     37 H37       -10.6672   -0.0597   62.7711 H       1  ZINC000020646552    0.1300
     38 H38        -9.7198    1.4439   62.8688 H       1  ZINC000020646552    0.1200
     39 H39       -11.7512   -2.7374   57.1041 H       1  ZINC000020646552    0.1400
     40 H40       -13.8325   -4.0336   56.9030 H       1  ZINC000020646552    0.1300
     41 H41       -15.5410   -3.9065   58.6685 H       1  ZINC000020646552    0.1300
     42 H42       -15.1790   -2.4831   60.6422 H       1  ZINC000020646552    0.1300
     43 H43       -13.1012   -1.1844   60.8628 H       1  ZINC000020646552    0.1300
     44 H44        -7.7280    2.0517   60.0458 H       1  ZINC000020646552    0.0800
     45 H45        -6.7767    0.5504   60.0328 H       1  ZINC000020646552    0.1100
     46 H46        -7.9361    3.9711   58.4018 H       1  ZINC000020646552    0.0700
     47 H47        -9.4049    3.6891   57.4368 H       1  ZINC000020646552    0.0700
     48 H48        -9.1687    2.8210   58.9727 H       1  ZINC000020646552    0.0600
     49 H49        -6.7645    1.8479   55.5693 H       1  ZINC000020646552    0.0700
     50 H50        -8.0025    3.1213   55.4517 H       1  ZINC000020646552    0.0800
     51 H51        -6.5264    3.4006   56.4065 H       1  ZINC000020646552    0.0700
     52 H52        -8.5203    0.3327   56.2417 H       1  ZINC000020646552    0.1000
     53 H53        -9.8269    1.5244   56.4379 H       1  ZINC000020646552    0.1000
     54 H54        -8.2230    2.0997   63.4731 H       1  ZINC000020646552    0.0900
     55 H55        -8.4967    3.0074   64.9835 H       1  ZINC000020646552    0.0800
     56 H56        -6.1107    3.0895   64.4451 H       1  ZINC000020646552    0.0900
     57 H57        -6.0521    1.3178   64.2798 H       1  ZINC000020646552    0.0400
@<TRIPOS>BOND
     1     1     2    1
     2     1    30    1
     3     1    31    1
     4     1    32    1
     5     2    29    1
     6     2     3    1
     7     3     4    1
     8     3    33    1
     9     3    34    1
    10     4     5    1
    11     4    35    1
    12     4    36    1
    13     5     6   am
    14     5    28    1
    15     6     7    2
    16     6     8    1
    17     8     9    1
    18     8    37    1
    19     8    38    1
    20     9    10    1
    21    10    21   ar
    22    10    11   ar
    23    11    12   ar
    24    12    13    1
    25    12    19   ar
    26    13    18   ar
    27    13    14   ar
    28    14    15   ar
    29    14    39    1
    30    15    16   ar
    31    15    40    1
    32    16    17   ar
    33    16    41    1
    34    17    18   ar
    35    17    42    1
    36    18    43    1
    37    19    20   ar
    38    20    27    1
    39    20    21   ar
    40    21    22    1
    41    22    23    1
    42    22    44    1
    43    22    45    1
    44    23    24    1
    45    24    25    1
    46    24    26    1
    47    24    27    1
    48    25    46    1
    49    25    47    1
    50    25    48    1
    51    26    49    1
    52    26    50    1
    53    26    51    1
    54    27    52    1
    55    27    53    1
    56    28    29    1
    57    28    54    1
    58    28    55    1
    59    29    56    1
    60    29    57    1
@<TRIPOS>SUBSTRUCTURE
     1 ZINC000020646552        1 TEMP              0 ****  ****    0 ROOT


##########                                Name:    ZINC001757264545
##########                DOCK_Rotatable_Bonds:                  11
##########                         Heavy_Atoms:                  25
##########                    Molecular_Weight:             344.497
##########                DOCK_Rotatable_Bonds:                  11
##########                       Formal_Charge:          0.00999946
##########                     HBond_Acceptors:                   4
##########                        HBond_Donors:                   2
##########                         Heavy_Atoms:                  25
##########                          Grid_Score:          -34.204231
##########                     Grid_vdw_energy:          -31.821951
##########                      Grid_es_energy:           -2.382281
##########           Internal_energy_repulsive:            9.428747

@<TRIPOS>MOLECULE
ZINC001757264545
 57 57 1 0 0
SMALL
USER_CHARGES


@<TRIPOS>ATOM
      1 C1         -2.2278    1.8811   47.3393 C.1     1  ZINC001757264545   -0.2100
      2 C2         -2.7094    2.3551   48.2994 C.1     1  ZINC001757264545   -0.1900
      3 C3         -3.3134    2.9494   49.5030 C.3     1  ZINC001757264545   -0.0100
      4 C4         -4.7755    2.5113   49.6093 C.3     1  ZINC001757264545   -0.1200
      5 C5         -4.8391    1.0562   50.0779 C.3     1  ZINC001757264545   -0.1200
      6 C6         -6.2894    0.5706   50.0383 C.3     1  ZINC001757264545   -0.1000
      7 C7         -6.7599    0.2531   51.4591 C.3     1  ZINC001757264545   -0.1400
      8 C8         -6.9905    1.5386   52.2111 C.2     1  ZINC001757264545    0.5100
      9 O9         -7.9299    2.2496   51.9228 O.2     1  ZINC001757264545   -0.5400
     10 N10        -6.1528    1.8983   53.2038 N.am    1  ZINC001757264545   -0.7300
     11 C11        -6.3780    3.1470   53.9358 C.3     1  ZINC001757264545    0.1400
     12 H12        -7.2609    3.6473   53.5381 H       1  ZINC001757264545    0.1000
     13 C13        -5.1598    4.0588   53.7759 C.3     1  ZINC001757264545   -0.1300
     14 C14        -5.3949    5.3630   54.5406 C.3     1  ZINC001757264545   -0.1200
     15 C15        -5.6091    5.0533   56.0235 C.3     1  ZINC001757264545   -0.1200
     16 C16        -6.8272    4.1415   56.1834 C.3     1  ZINC001757264545   -0.1300
     17 C17        -6.5920    2.8373   55.4188 C.3     1  ZINC001757264545    0.1400
     18 H18        -5.7091    2.3371   55.8166 H       1  ZINC001757264545    0.1000
     19 N19        -7.7585    1.9644   55.5720 N.am    1  ZINC001757264545   -0.7200
     20 C20        -7.8590    1.1562   56.6459 C.2     1  ZINC001757264545    0.6400
     21 O21        -6.9822    1.1529   57.4886 O.2     1  ZINC001757264545   -0.5200
     22 C22        -8.9984    0.3016   56.7947 C.1     1  ZINC001757264545   -0.2300
     23 C23        -9.9325   -0.3990   56.9167 C.1     1  ZINC001757264545   -0.0500
     24 C24       -11.1037   -1.2776   57.0697 C.3     1  ZINC001757264545    0.0300
     25 C25       -10.6443   -2.7362   57.1167 C.3     1  ZINC001757264545   -0.1400
     26 C26       -11.8349   -0.9310   58.3682 C.3     1  ZINC001757264545   -0.1400
     27 C27       -12.0489   -1.0785   55.8832 C.3     1  ZINC001757264545   -0.1400
     28 H28        -1.7970    1.4572   46.4807 H       1  ZINC001757264545    0.2200
     29 H29        -3.2637    4.0361   49.4358 H       1  ZINC001757264545    0.0900
     30 H30        -2.7687    2.6146   50.3858 H       1  ZINC001757264545    0.0900
     31 H31        -5.2532    2.5999   48.6336 H       1  ZINC001757264545    0.0700
     32 H32        -5.2940    3.1470   50.3269 H       1  ZINC001757264545    0.0700
     33 H33        -4.4601    0.9859   51.0975 H       1  ZINC001757264545    0.0700
     34 H34        -4.2302    0.4358   49.4203 H       1  ZINC001757264545    0.0700
     35 H35        -6.3553   -0.3277   49.4245 H       1  ZINC001757264545    0.0700
     36 H36        -6.9218    1.3492   49.6117 H       1  ZINC001757264545    0.0700
     37 H37        -5.9987   -0.3356   51.9710 H       1  ZINC001757264545    0.0900
     38 H38        -7.6896   -0.3142   51.4157 H       1  ZINC001757264545    0.0900
     39 H39        -5.4008    1.3302   53.4334 H       1  ZINC001757264545    0.4000
     40 H40        -4.2768    3.5585   54.1737 H       1  ZINC001757264545    0.0700
     41 H41        -5.0073    4.2795   52.7195 H       1  ZINC001757264545    0.0800
     42 H42        -4.5271    6.0126   54.4266 H       1  ZINC001757264545    0.0700
     43 H43        -6.2779    5.8633   54.1428 H       1  ZINC001757264545    0.0700
     44 H44        -5.7765    5.9824   56.5682 H       1  ZINC001757264545    0.0700
     45 H45        -4.7261    4.5531   56.4213 H       1  ZINC001757264545    0.0700
     46 H46        -7.7102    4.6418   55.7856 H       1  ZINC001757264545    0.0700
     47 H47        -6.9797    3.9209   57.2400 H       1  ZINC001757264545    0.0800
     48 H48        -8.4584    1.9678   54.9004 H       1  ZINC001757264545    0.4000
     49 H49        -9.9709   -2.8780   57.9619 H       1  ZINC001757264545    0.0600
     50 H50       -11.5115   -3.3867   57.2300 H       1  ZINC001757264545    0.0700
     51 H51       -10.1233   -2.9830   56.1916 H       1  ZINC001757264545    0.0600
     52 H52       -12.1621    0.1081   58.3348 H       1  ZINC001757264545    0.0600
     53 H53       -12.7022   -1.5815   58.4815 H       1  ZINC001757264545    0.0700
     54 H54       -11.1614   -1.0729   59.2134 H       1  ZINC001757264545    0.0600
     55 H55       -11.5279   -1.3253   54.9582 H       1  ZINC001757264545    0.0600
     56 H56       -12.9162   -1.7290   55.9966 H       1  ZINC001757264545    0.0700
     57 H57       -12.3761   -0.0392   55.8498 H       1  ZINC001757264545    0.0600
@<TRIPOS>BOND
     1     1     2    3
     2     1    28    1
     3     2     3    1
     4     3     4    1
     5     3    29    1
     6     3    30    1
     7     4     5    1
     8     4    31    1
     9     4    32    1
    10     5     6    1
    11     5    33    1
    12     5    34    1
    13     6     7    1
    14     6    35    1
    15     6    36    1
    16     7     8    1
    17     7    37    1
    18     7    38    1
    19     8     9    2
    20     8    10   am
    21    10    11    1
    22    10    39    1
    23    11    12    1
    24    11    17    1
    25    11    13    1
    26    13    14    1
    27    13    40    1
    28    13    41    1
    29    14    15    1
    30    14    42    1
    31    14    43    1
    32    15    16    1
    33    15    44    1
    34    15    45    1
    35    16    17    1
    36    16    46    1
    37    16    47    1
    38    17    18    1
    39    17    19    1
    40    19    20   am
    41    19    48    1
    42    20    21    2
    43    20    22    1
    44    22    23    3
    45    23    24    1
    46    24    25    1
    47    24    26    1
    48    24    27    1
    49    25    49    1
    50    25    50    1
    51    25    51    1
    52    26    52    1
    53    26    53    1
    54    26    54    1
    55    27    55    1
    56    27    56    1
    57    27    57    1
@<TRIPOS>SUBSTRUCTURE
     1 ZINC001757264545        1 TEMP              0 ****  ****    0 ROOT


##########                                Name:    ZINC000435005159
##########                DOCK_Rotatable_Bonds:                  12
##########                         Heavy_Atoms:                  30
##########                    Molecular_Weight:             401.508
##########                DOCK_Rotatable_Bonds:                  12
##########                       Formal_Charge:          -0.0399985
##########                     HBond_Acceptors:                   5
##########                        HBond_Donors:                   2
##########                         Heavy_Atoms:                  30
##########                          Grid_Score:          -34.172703
##########                     Grid_vdw_energy:          -34.457928
##########                      Grid_es_energy:            0.285224
##########           Internal_energy_repulsive:           11.250170

@<TRIPOS>MOLECULE
ZINC000435005159
 57 59 1 0 0
SMALL
USER_CHARGES


@<TRIPOS>ATOM
      1 O1         -7.2537   -0.7701   52.4732 O.2     1  ZINC000435005159   -0.5300
      2 C2         -6.6633    0.2515   52.1925 C.2     1  ZINC000435005159    0.5200
      3 C3         -5.5747    0.2307   51.1507 C.3     1  ZINC000435005159   -0.1400
      4 C4         -6.0997    0.8460   49.8519 C.3     1  ZINC000435005159   -0.1200
      5 C5         -5.5517    2.2667   49.7027 C.3     1  ZINC000435005159    0.1200
      6 N6         -4.2281    2.2161   49.0767 N.am    1  ZINC000435005159   -0.7200
      7 C7         -3.1583    2.7233   49.7207 C.2     1  ZINC000435005159    0.5600
      8 O8         -3.2918    3.2239   50.8203 O.2     1  ZINC000435005159   -0.5300
      9 C9         -1.8223    2.6708   49.0898 C.ar    1  ZINC000435005159   -0.1900
     10 C10        -1.6683    2.1760   47.7893 C.ar    1  ZINC000435005159   -0.0200
     11 C11        -0.3964    2.1486   47.2444 C.ar    1  ZINC000435005159   -0.1800
     12 C12         0.6716    2.6064   47.9945 C.ar    1  ZINC000435005159    0.1200
     13 N13         0.4964    3.0671   49.2186 N.ar    1  ZINC000435005159   -0.4900
     14 C14        -0.6941    3.1189   49.7784 C.ar    1  ZINC000435005159    0.1400
     15 N15        -6.9847    1.4066   52.8083 N.am    1  ZINC000435005159   -0.7300
     16 C16        -8.0430    1.4268   53.8210 C.3     1  ZINC000435005159    0.1900
     17 H17        -8.0043    0.5075   54.4056 H       1  ZINC000435005159    0.1000
     18 C18        -7.8404    2.6284   54.7464 C.3     1  ZINC000435005159   -0.1200
     19 C19        -6.6922    2.3383   55.7149 C.3     1  ZINC000435005159   -0.0800
     20 C20        -7.2187    2.3183   57.1268 C.ar    1  ZINC000435005159   -0.0800
     21 C21        -7.3296    3.4974   57.8399 C.ar    1  ZINC000435005159   -0.1200
     22 C22        -7.8127    3.4791   59.1350 C.ar    1  ZINC000435005159   -0.1200
     23 C23        -8.1853    2.2818   59.7168 C.ar    1  ZINC000435005159   -0.1200
     24 C24        -8.0752    1.1029   59.0034 C.ar    1  ZINC000435005159   -0.1200
     25 C25        -7.5962    1.1217   57.7068 C.ar    1  ZINC000435005159   -0.1200
     26 C26        -9.3848    1.5351   53.1435 C.ar    1  ZINC000435005159   -0.1000
     27 C27       -10.3165    0.5246   53.2901 C.ar    1  ZINC000435005159   -0.1100
     28 C28       -11.5473    0.6239   52.6687 C.ar    1  ZINC000435005159   -0.1200
     29 C29       -11.8465    1.7341   51.9010 C.ar    1  ZINC000435005159   -0.1200
     30 C30       -10.9150    2.7449   51.7553 C.ar    1  ZINC000435005159   -0.1200
     31 C31        -9.6859    2.6476   52.3802 C.ar    1  ZINC000435005159   -0.1000
     32 H32        -4.7203    0.8068   51.5062 H       1  ZINC000435005159    0.1000
     33 H33        -5.2674   -0.7988   50.9666 H       1  ZINC000435005159    0.1000
     34 H34        -5.7751    0.2405   49.0058 H       1  ZINC000435005159    0.0800
     35 H35        -7.1889    0.8777   49.8793 H       1  ZINC000435005159    0.0800
     36 H36        -6.2264    2.8528   49.0790 H       1  ZINC000435005159    0.0700
     37 H37        -5.4709    2.7301   50.6860 H       1  ZINC000435005159    0.0700
     38 H38        -4.1217    1.8177   48.1987 H       1  ZINC000435005159    0.4000
     39 H39        -2.5200    1.8244   47.2260 H       1  ZINC000435005159    0.1500
     40 H40        -0.2394    1.7734   46.2439 H       1  ZINC000435005159    0.1500
     41 H41         1.6651    2.5862   47.5717 H       1  ZINC000435005159    0.1600
     42 H42        -0.7974    3.5029   50.7825 H       1  ZINC000435005159    0.1600
     43 H43        -6.5152    2.2243   52.5809 H       1  ZINC000435005159    0.4000
     44 H44        -7.5998    3.5090   54.1509 H       1  ZINC000435005159    0.0700
     45 H45        -8.7549    2.8104   55.3111 H       1  ZINC000435005159    0.0800
     46 H46        -6.2524    1.3697   55.4775 H       1  ZINC000435005159    0.0700
     47 H47        -5.9329    3.1148   55.6213 H       1  ZINC000435005159    0.0700
     48 H48        -7.0385    4.4328   57.3853 H       1  ZINC000435005159    0.1200
     49 H49        -7.8986    4.4001   59.6923 H       1  ZINC000435005159    0.1200
     50 H50        -8.5620    2.2674   60.7289 H       1  ZINC000435005159    0.1200
     51 H51        -8.3660    0.1674   59.4581 H       1  ZINC000435005159    0.1200
     52 H52        -7.5102    0.2006   57.1495 H       1  ZINC000435005159    0.1200
     53 H53       -10.0829   -0.3427   53.8898 H       1  ZINC000435005159    0.1200
     54 H54       -12.2750   -0.1659   52.7825 H       1  ZINC000435005159    0.1200
     55 H55       -12.8078    1.8113   51.4150 H       1  ZINC000435005159    0.1200
     56 H56       -11.1486    3.6121   51.1553 H       1  ZINC000435005159    0.1200
     57 H57        -8.9581    3.4374   52.2664 H       1  ZINC000435005159    0.1200
@<TRIPOS>BOND
     1     1     2    2
     2     2     3    1
     3     2    15   am
     4     3     4    1
     5     3    32    1
     6     3    33    1
     7     4     5    1
     8     4    34    1
     9     4    35    1
    10     5     6    1
    11     5    36    1
    12     5    37    1
    13     6     7   am
    14     6    38    1
    15     7     8    2
    16     7     9    1
    17     9    14   ar
    18     9    10   ar
    19    10    11   ar
    20    10    39    1
    21    11    12   ar
    22    11    40    1
    23    12    13   ar
    24    12    41    1
    25    13    14   ar
    26    14    42    1
    27    15    16    1
    28    15    43    1
    29    16    17    1
    30    16    18    1
    31    16    26    1
    32    18    19    1
    33    18    44    1
    34    18    45    1
    35    19    20    1
    36    19    46    1
    37    19    47    1
    38    20    25   ar
    39    20    21   ar
    40    21    22   ar
    41    21    48    1
    42    22    23   ar
    43    22    49    1
    44    23    24   ar
    45    23    50    1
    46    24    25   ar
    47    24    51    1
    48    25    52    1
    49    26    31   ar
    50    26    27   ar
    51    27    28   ar
    52    27    53    1
    53    28    29   ar
    54    28    54    1
    55    29    30   ar
    56    29    55    1
    57    30    31   ar
    58    30    56    1
    59    31    57    1
@<TRIPOS>SUBSTRUCTURE
     1 ZINC000435005159        1 TEMP              0 ****  ****    0 ROOT


##########                                Name:    ZINC000006915700
##########                DOCK_Rotatable_Bonds:                   5
##########                         Heavy_Atoms:                  26
##########                    Molecular_Weight:             369.447
##########                DOCK_Rotatable_Bonds:                   5
##########                       Formal_Charge:        -1.04308e-07
##########                     HBond_Acceptors:                   8
##########                        HBond_Donors:                   1
##########                         Heavy_Atoms:                  26
##########                          Grid_Score:          -34.160946
##########                     Grid_vdw_energy:          -31.125364
##########                      Grid_es_energy:           -3.035580
##########           Internal_energy_repulsive:            5.453930

@<TRIPOS>MOLECULE
ZINC000006915700
 45 48 1 0 0
SMALL
USER_CHARGES


@<TRIPOS>ATOM
      1 C1         -8.5610    0.4741   52.3694 C.3     1  <0>        -0.1200
      2 C2         -7.2310    0.8854   51.7923 C.ar    1  <0>        -0.0500
      3 C3         -6.6142    0.0868   50.8459 C.ar    1  <0>        -0.1300
      4 C4         -5.3966    0.4581   50.3135 C.ar    1  <0>        -0.0600
      5 C5         -4.7876    1.6414   50.7317 C.ar    1  <0>        -0.0700
      6 C6         -3.4809    2.0461   50.1639 C.2     1  <0>         0.4400
      7 N7         -3.1768    1.7029   48.9191 N.2     1  <0>        -0.5200
      8 C8         -2.0017    2.0613   48.3932 C.2     1  <0>         0.3600
      9 C9         -1.4148    1.8562   47.1511 C.2     1  <0>        -0.3200
     10 C10        -0.1599    2.4668   47.1678 C.2     1  <0>         0.5500
     11 O11         0.6358    2.4873   46.2428 O.2     1  <0>        -0.5200
     12 N12         0.0243    3.0304   48.3776 N.am    1  <0>        -0.5000
     13 N13        -1.1120    2.7891   49.1562 N.pl3   1  <0>        -0.3300
     14 C14        -1.4547    3.1267   50.4337 C.2     1  <0>         0.3900
     15 S15        -0.3421    4.0557   51.4357 S.3     1  <0>         0.1200
     16 C16        -1.2127    3.9842   53.0210 C.3     1  <0>        -0.1500
     17 C17        -0.3840    4.6644   54.0802 C.2     1  <0>         0.5500
     18 O18         0.3165    5.6103   53.7876 O.2     1  <0>        -0.5200
     19 N19        -0.4212    4.2215   55.3525 N.am    1  <0>        -0.6100
     20 C20         0.3292    4.7920   56.4808 C.3     1  <0>         0.0900
     21 C21        -0.0064    3.9474   57.7281 C.3     1  <0>        -0.1300
     22 C22        -0.4861    2.6035   57.1190 C.3     1  <0>        -0.1400
     23 C23        -1.2259    3.0885   55.8447 C.3     1  <0>         0.1000
     24 N24        -2.6317    2.7546   50.9120 N.2     1  <0>        -0.5600
     25 C25        -5.4146    2.4423   51.6863 C.ar    1  <0>        -0.0500
     26 C26        -6.6346    2.0628   52.2073 C.ar    1  <0>        -0.1300
     27 H27        -9.3648    0.8842   51.7578 H       1  <0>         0.0800
     28 H28        -8.6317   -0.6135   52.3803 H       1  <0>         0.0700
     29 H29        -8.6488    0.8543   53.3871 H       1  <0>         0.0700
     30 H30        -7.0865   -0.8293   50.5232 H       1  <0>         0.1300
     31 H31        -4.9158   -0.1662   49.5750 H       1  <0>         0.1300
     32 H32        -1.8512    1.3200   46.3213 H       1  <0>         0.1800
     33 H33         0.8117    3.5209   48.6607 H       1  <0>         0.4400
     34 H34        -2.1737    4.4903   52.9309 H       1  <0>         0.1400
     35 H35        -1.3750    2.9430   53.2998 H       1  <0>         0.1400
     36 H36         1.3988    4.7434   56.2770 H       1  <0>         0.0800
     37 H37         0.0270    5.8269   56.6415 H       1  <0>         0.0800
     38 H38         0.8815    3.7973   58.3424 H       1  <0>         0.0900
     39 H39        -0.8029    4.4145   58.3072 H       1  <0>         0.0800
     40 H40         0.3604    1.9657   56.8644 H       1  <0>         0.0800
     41 H41        -1.1705    2.0905   57.7946 H       1  <0>         0.0900
     42 H42        -2.2362    3.4137   56.0932 H       1  <0>         0.0800
     43 H43        -1.2548    2.2953   55.0977 H       1  <0>         0.0800
     44 H44        -4.9480    3.3596   52.0140 H       1  <0>         0.1400
     45 H45        -7.1211    2.6821   52.9462 H       1  <0>         0.1300
@<TRIPOS>BOND
     1     1     2    1
     2     1    27    1
     3     1    28    1
     4     1    29    1
     5     2    26   ar
     6     2     3   ar
     7     3     4   ar
     8     3    30    1
     9     4     5   ar
    10     4    31    1
    11     5     6    1
    12     5    25   ar
    13     6    24    1
    14     6     7    2
    15     7     8    1
    16     8    13    1
    17     8     9    2
    18     9    10    1
    19     9    32    1
    20    10    11    2
    21    10    12   am
    22    12    13    1
    23    12    33    1
    24    13    14    1
    25    14    15    1
    26    14    24    2
    27    15    16    1
    28    16    17    1
    29    16    34    1
    30    16    35    1
    31    17    18    2
    32    17    19   am
    33    19    23    1
    34    19    20    1
    35    20    21    1
    36    20    36    1
    37    20    37    1
    38    21    22    1
    39    21    38    1
    40    21    39    1
    41    22    23    1
    42    22    40    1
    43    22    41    1
    44    23    42    1
    45    23    43    1
    46    25    26   ar
    47    25    44    1
    48    26    45    1
@<TRIPOS>SUBSTRUCTURE
     1 <0>         1 TEMP              0 ****  ****    0 ROOT


##########                                Name:    ZINC000265786263
##########                DOCK_Rotatable_Bonds:                   7
##########                         Heavy_Atoms:                  28
##########                    Molecular_Weight:             386.451
##########                DOCK_Rotatable_Bonds:                   7
##########                       Formal_Charge:           0.0499992
##########                     HBond_Acceptors:                   8
##########                        HBond_Donors:                   2
##########                         Heavy_Atoms:                  28
##########                          Grid_Score:          -34.155460
##########                     Grid_vdw_energy:          -33.549240
##########                      Grid_es_energy:           -0.606221
##########           Internal_energy_repulsive:           14.620995

@<TRIPOS>MOLECULE
ZINC000265786263
 54 57 1 0 0
SMALL
USER_CHARGES


@<TRIPOS>ATOM
      1 C1         -5.8375    0.5507   49.6828 C.3     1  ZINC000265786263   -0.1500
      2 C2         -6.2370    1.1880   51.0152 C.3     1  ZINC000265786263    0.1600
      3 C3         -5.0483    1.9251   51.6353 C.3     1  ZINC000265786263   -0.1600
      4 C4         -4.7800    3.3556   51.1637 C.3     1  ZINC000265786263   -0.1600
      5 C5         -5.3532    3.1053   52.5599 C.3     1  ZINC000265786263   -0.1600
      6 N6         -7.3784    2.1009   50.8314 N.am    1  ZINC000265786263   -0.7100
      7 C7         -8.3848    1.6142   51.5797 C.2     1  ZINC000265786263    0.7100
      8 O8         -9.4816    2.1322   51.6563 O.2     1  ZINC000265786263   -0.5400
      9 N9         -8.0434    0.4960   52.2303 N.am    1  ZINC000265786263   -0.5600
     10 C10        -8.9427   -0.2481   53.1158 C.3     1  ZINC000265786263    0.1000
     11 C11        -9.0964    0.4969   54.4167 C.2     1  ZINC000265786263    0.5100
     12 O12        -8.4053    1.4669   54.6455 O.2     1  ZINC000265786263   -0.5300
     13 N13       -10.0021    0.0852   55.3260 N.am    1  ZINC000265786263   -0.6100
     14 C14       -10.8448   -1.0932   55.0720 C.3     1  ZINC000265786263    0.1100
     15 C15       -10.7422   -2.0339   56.2773 C.3     1  ZINC000265786263    0.0400
     16 N16       -11.0656   -1.2914   57.5029 N.3     1  ZINC000265786263   -0.5300
     17 C17       -11.1468   -2.1938   58.6592 C.3     1  ZINC000265786263    0.0900
     18 C18       -12.5923   -2.4152   59.0232 C.ar    1  ZINC000265786263   -0.0600
     19 C19       -13.1368   -1.7657   60.1153 C.ar    1  ZINC000265786263   -0.1300
     20 C20       -14.4629   -1.9668   60.4519 C.ar    1  ZINC000265786263   -0.1000
     21 C21       -15.2469   -2.8174   59.6973 C.ar    1  ZINC000265786263   -0.1400
     22 C22       -14.7027   -3.4705   58.6006 C.ar    1  ZINC000265786263    0.1100
     23 O23       -15.4722   -4.3077   57.8563 O.3     1  ZINC000265786263   -0.5000
     24 C24       -13.3738   -3.2629   58.2617 C.ar    1  ZINC000265786263   -0.1200
     25 C25       -10.0978   -0.2130   57.7437 C.3     1  ZINC000265786263    0.0400
     26 C26       -10.1697    0.7987   56.6011 C.3     1  ZINC000265786263    0.1200
     27 C27        -6.7705    0.1383   51.9698 C.2     1  ZINC000265786263    0.5400
     28 O28        -6.1760   -0.8235   52.4072 O.2     1  ZINC000265786263   -0.4500
     29 H29        -6.7053    0.0631   49.2386 H       1  ZINC000265786263    0.0700
     30 H30        -5.4687    1.3224   49.0071 H       1  ZINC000265786263    0.0800
     31 H31        -5.0539   -0.1874   49.8536 H       1  ZINC000265786263    0.0900
     32 H32        -4.1856    1.3048   51.8787 H       1  ZINC000265786263    0.1100
     33 H33        -3.7405    3.6768   51.0965 H       1  ZINC000265786263    0.1000
     34 H34        -5.4503    3.7717   50.4116 H       1  ZINC000265786263    0.1100
     35 H35        -6.4006    3.3568   52.7265 H       1  ZINC000265786263    0.1000
     36 H36        -4.6908    3.2618   53.4114 H       1  ZINC000265786263    0.1000
     37 H37        -7.3999    2.8980   50.2791 H       1  ZINC000265786263    0.4400
     38 H38        -9.9175   -0.3523   52.6393 H       1  ZINC000265786263    0.1300
     39 H39        -8.5256   -1.2362   53.3100 H       1  ZINC000265786263    0.1300
     40 H40       -11.8805   -0.7808   54.9386 H       1  ZINC000265786263    0.0900
     41 H41       -10.4959   -1.6066   54.1760 H       1  ZINC000265786263    0.0900
     42 H42       -11.4443   -2.8587   56.1557 H       1  ZINC000265786263    0.0900
     43 H43        -9.7277   -2.4265   56.3469 H       1  ZINC000265786263    0.0400
     44 H44       -10.6850   -3.1487   58.4079 H       1  ZINC000265786263    0.0900
     45 H45       -10.6232   -1.7485   59.5051 H       1  ZINC000265786263    0.0500
     46 H46       -12.5253   -1.1004   60.7068 H       1  ZINC000265786263    0.1200
     47 H47       -14.8859   -1.4584   61.3058 H       1  ZINC000265786263    0.1300
     48 H48       -16.2824   -2.9743   59.9608 H       1  ZINC000265786263    0.1300
     49 H49       -16.3869   -4.3774   58.1622 H       1  ZINC000265786263    0.3900
     50 H50       -12.9480   -3.7701   57.4086 H       1  ZINC000265786263    0.1300
     51 H51       -10.3324    0.2828   58.6856 H       1  ZINC000265786263    0.1000
     52 H52        -9.0923   -0.6310   57.7929 H       1  ZINC000265786263    0.0400
     53 H53        -9.3767    1.5378   56.7159 H       1  ZINC000265786263    0.1000
     54 H54       -11.1404    1.2946   56.6116 H       1  ZINC000265786263    0.0800
@<TRIPOS>BOND
     1     1     2    1
     2     1    29    1
     3     1    30    1
     4     1    31    1
     5     2    27    1
     6     2     3    1
     7     2     6    1
     8     3     5    1
     9     3     4    1
    10     3    32    1
    11     4     5    1
    12     4    33    1
    13     4    34    1
    14     5    35    1
    15     5    36    1
    16     6     7   am
    17     6    37    1
    18     7     8    2
    19     7     9   am
    20     9    10    1
    21     9    27   am
    22    10    11    1
    23    10    38    1
    24    10    39    1
    25    11    12    2
    26    11    13   am
    27    13    26    1
    28    13    14    1
    29    14    15    1
    30    14    40    1
    31    14    41    1
    32    15    16    1
    33    15    42    1
    34    15    43    1
    35    16    17    1
    36    16    25    1
    37    17    18    1
    38    17    44    1
    39    17    45    1
    40    18    24   ar
    41    18    19   ar
    42    19    20   ar
    43    19    46    1
    44    20    21   ar
    45    20    47    1
    46    21    22   ar
    47    21    48    1
    48    22    23    1
    49    22    24   ar
    50    23    49    1
    51    24    50    1
    52    25    26    1
    53    25    51    1
    54    25    52    1
    55    26    53    1
    56    26    54    1
    57    27    28    2
@<TRIPOS>SUBSTRUCTURE
     1 ZINC000265786263        1 TEMP              0 ****  ****    0 ROOT


##########                                Name:    ZINC000599797189
##########                DOCK_Rotatable_Bonds:                  13
##########                         Heavy_Atoms:                  23
##########                    Molecular_Weight:             329.313
##########                DOCK_Rotatable_Bonds:                  13
##########                       Formal_Charge:          0.00999949
##########                     HBond_Acceptors:                  11
##########                        HBond_Donors:                   3
##########                         Heavy_Atoms:                  23
##########                          Grid_Score:          -34.151463
##########                     Grid_vdw_energy:          -32.922264
##########                      Grid_es_energy:           -1.229198
##########           Internal_energy_repulsive:            7.234267

@<TRIPOS>MOLECULE
ZINC000599797189
 42 42 1 0 0
SMALL
USER_CHARGES


@<TRIPOS>ATOM
      1 C1         -9.1887   -0.0592   53.6769 C.3     1  ZINC000599797189   -0.1500
      2 C2         -9.1204    0.1226   52.1592 C.3     1  ZINC000599797189    0.0600
      3 O3         -8.0828   -0.7352   51.6153 O.3     1  ZINC000599797189   -0.3600
      4 C4         -6.8978   -0.1642   51.3485 C.2     1  ZINC000599797189    0.4500
      5 O5         -6.2696    0.3659   52.2339 O.2     1  ZINC000599797189   -0.4800
      6 C6         -6.3509   -0.1841   49.9443 C.3     1  ZINC000599797189    0.1500
      7 N7         -5.6969    1.0949   49.6568 N.pl3   1  ZINC000599797189   -0.3800
      8 C8         -6.2768    2.3068   49.6310 C.2     1  ZINC000599797189    0.2800
      9 N9         -5.3594    3.1926   49.3371 N.2     1  ZINC000599797189   -0.5100
     10 C10        -4.1815    2.5847   49.1681 C.2     1  ZINC000599797189    0.4700
     11 N11        -2.9770    3.2185   48.8454 N.am    1  ZINC000599797189   -0.6400
     12 C12        -1.9492    3.1966   49.7171 C.2     1  ZINC000599797189    0.7100
     13 O13        -2.0695    2.6274   50.7846 O.2     1  ZINC000599797189   -0.5300
     14 N14        -0.7882    3.8059   49.4053 N.am    1  ZINC000599797189   -0.7300
     15 C15         0.3296    3.7807   50.3520 C.3     1  ZINC000599797189    0.1100
     16 C16         1.1606    2.5161   50.1264 C.3     1  ZINC000599797189    0.1100
     17 H17         0.5142    1.6406   50.1884 H       1  ZINC000599797189    0.1200
     18 O18         1.7678    2.5694   48.8339 O.3     1  ZINC000599797189   -0.5400
     19 C19         2.2491    2.4231   51.1976 C.3     1  ZINC000599797189   -0.1500
     20 C20         3.0430    1.1579   50.9987 C.2     1  ZINC000599797189    0.4600
     21 O21         4.2249    1.1405   51.2496 O.2     1  ZINC000599797189   -0.4900
     22 O22         2.4373    0.0502   50.5429 O.3     1  ZINC000599797189   -0.3600
     23 C23         3.2689   -1.1249   50.3523 C.3     1  ZINC000599797189    0.0400
     24 N24        -4.3393    1.2968   49.3597 N.2     1  ZINC000599797189   -0.3200
     25 H25        -9.9676    0.5848   54.0852 H       1  ZINC000599797189    0.0800
     26 H26        -9.4188   -1.0992   53.9082 H       1  ZINC000599797189    0.0700
     27 H27        -8.2285    0.2074   54.1184 H       1  ZINC000599797189    0.0700
     28 H28       -10.0807   -0.1439   51.7177 H       1  ZINC000599797189    0.0700
     29 H29        -8.8902    1.1627   51.9279 H       1  ZINC000599797189    0.0700
     30 H30        -5.6261   -0.9925   49.8482 H       1  ZINC000599797189    0.1500
     31 H31        -7.1667   -0.3417   49.2388 H       1  ZINC000599797189    0.1300
     32 H32        -7.3197    2.5139   49.8199 H       1  ZINC000599797189    0.2300
     33 H33        -2.8813    3.6736   47.9941 H       1  ZINC000599797189    0.4200
     34 H34        -0.6925    4.2611   48.5540 H       1  ZINC000599797189    0.4000
     35 H35         0.9559    4.6594   50.1982 H       1  ZINC000599797189    0.0800
     36 H36        -0.0573    3.7842   51.3711 H       1  ZINC000599797189    0.0800
     37 H37         2.3956    3.2967   48.7239 H       1  ZINC000599797189    0.3800
     38 H38         2.9122    3.2845   51.1176 H       1  ZINC000599797189    0.1200
     39 H39         1.7871    2.4107   52.1849 H       1  ZINC000599797189    0.1200
     40 H40         4.0534   -0.9014   49.6293 H       1  ZINC000599797189    0.0600
     41 H41         3.7208   -1.4083   51.3029 H       1  ZINC000599797189    0.0600
     42 H42         2.6566   -1.9470   49.9817 H       1  ZINC000599797189    0.1000
@<TRIPOS>BOND
     1     1     2    1
     2     1    25    1
     3     1    26    1
     4     1    27    1
     5     2     3    1
     6     2    28    1
     7     2    29    1
     8     3     4    1
     9     4     5    2
    10     4     6    1
    11     6     7    1
    12     6    30    1
    13     6    31    1
    14     7    24    1
    15     7     8    1
    16     8     9    2
    17     8    32    1
    18     9    10    1
    19    10    11    1
    20    10    24    2
    21    11    12   am
    22    11    33    1
    23    12    13    2
    24    12    14   am
    25    14    15    1
    26    14    34    1
    27    15    16    1
    28    15    35    1
    29    15    36    1
    30    16    17    1
    31    16    18    1
    32    16    19    1
    33    18    37    1
    34    19    20    1
    35    19    38    1
    36    19    39    1
    37    20    21    2
    38    20    22    1
    39    22    23    1
    40    23    40    1
    41    23    41    1
    42    23    42    1
@<TRIPOS>SUBSTRUCTURE
     1 ZINC000599797189        1 TEMP              0 ****  ****    0 ROOT


##########                                Name:    ZINC000426805817
##########                DOCK_Rotatable_Bonds:                   6
##########                         Heavy_Atoms:                  26
##########                    Molecular_Weight:             412.286
##########                DOCK_Rotatable_Bonds:                   6
##########                       Formal_Charge:          -0.0100001
##########                     HBond_Acceptors:                   5
##########                        HBond_Donors:                   4
##########                         Heavy_Atoms:                  26
##########                          Grid_Score:          -34.146355
##########                     Grid_vdw_energy:          -26.083757
##########                      Grid_es_energy:           -8.062597
##########           Internal_energy_repulsive:            8.382977

@<TRIPOS>MOLECULE
ZINC000426805817
 44 47 1 0 0
SMALL
USER_CHARGES


@<TRIPOS>ATOM
      1 O1         -7.3619    3.4090   57.7831 O.co2   1  ZINC000426805817   -0.6300
      2 C2         -6.6285    2.5847   57.2643 C.2     1  ZINC000426805817    0.5000
      3 O3         -6.5742    1.4510   57.7098 O.co2   1  ZINC000426805817   -0.6800
      4 C4         -5.7938    2.9652   56.0688 C.3     1  ZINC000426805817   -0.0500
      5 H5         -5.2247    2.0985   55.7323 H       1  ZINC000426805817    0.1300
      6 C6         -6.7084    3.4443   54.9397 C.3     1  ZINC000426805817   -0.0500
      7 C7         -7.3585    2.2551   54.2808 C.2     1  ZINC000426805817   -0.1900
      8 C8         -8.3946    1.5463   54.7562 C.2     1  ZINC000426805817    0.0500
      9 N9         -8.7103    0.5398   53.8847 N.pl3   1  ZINC000426805817   -0.5900
     10 C10        -7.8632    0.5772   52.7992 C.ar    1  ZINC000426805817    0.1100
     11 C11        -7.7477   -0.1968   51.6496 C.ar    1  ZINC000426805817   -0.1200
     12 C12        -6.7735    0.0941   50.7201 C.ar    1  ZINC000426805817   -0.0700
     13 C13        -5.9007    1.1562   50.9176 C.ar    1  ZINC000426805817   -0.1100
     14 Br14       -4.5722    1.5341   49.6259 Br      1  ZINC000426805817   -0.0400
     15 C15        -5.9976    1.9359   52.0486 C.ar    1  ZINC000426805817   -0.0400
     16 C16        -6.9836    1.6572   52.9970 C.ar    1  ZINC000426805817   -0.1000
     17 N17        -4.8686    4.0439   56.4408 N.4     1  ZINC000426805817   -0.4800
     18 H18        -5.2827    4.9355   56.2134 H       1  ZINC000426805817    0.4000
     19 H19        -4.6840    4.0018   57.4319 H       1  ZINC000426805817    0.4200
     20 C20        -3.6094    3.8860   55.7010 C.3     1  ZINC000426805817    0.0400
     21 C21        -3.6232    4.7813   54.4889 C.ar    1  ZINC000426805817   -0.1600
     22 C22        -2.9296    4.4126   53.3411 C.ar    1  ZINC000426805817    0.1100
     23 N23        -2.1573    3.3220   53.0094 N.pl3   1  ZINC000426805817   -0.5900
     24 C24        -1.6968    3.4507   51.7273 C.2     1  ZINC000426805817    0.0600
     25 C25        -2.1421    4.5994   51.1942 C.2     1  ZINC000426805817   -0.2000
     26 C26        -2.9540    5.2606   52.2185 C.ar    1  ZINC000426805817   -0.1100
     27 C27        -3.6699    6.4580   52.2658 C.ar    1  ZINC000426805817   -0.0400
     28 C28        -4.3443    6.8008   53.4039 C.ar    1  ZINC000426805817   -0.1500
     29 C29        -4.3277    5.9653   54.5120 C.ar    1  ZINC000426805817   -0.0700
     30 H30        -7.4779    4.0990   55.3485 H       1  ZINC000426805817    0.1200
     31 H31        -6.1199    3.9912   54.2029 H       1  ZINC000426805817    0.0900
     32 H32        -8.9035    1.7415   55.6885 H       1  ZINC000426805817    0.1700
     33 H33        -9.4245   -0.1042   54.0124 H       1  ZINC000426805817    0.4200
     34 H34        -8.4208   -1.0253   51.4860 H       1  ZINC000426805817    0.1300
     35 H35        -6.6874   -0.5101   49.8291 H       1  ZINC000426805817    0.1400
     36 H36        -5.3173    2.7611   52.1992 H       1  ZINC000426805817    0.1400
     37 H37        -2.7732    4.1589   56.3447 H       1  ZINC000426805817    0.1500
     38 H38        -3.5012    2.8485   55.3851 H       1  ZINC000426805817    0.1300
     39 H39        -1.9673    2.5742   53.5973 H       1  ZINC000426805817    0.4300
     40 H40        -1.0683    2.7342   51.2195 H       1  ZINC000426805817    0.1800
     41 H41        -1.9397    4.9666   50.1989 H       1  ZINC000426805817    0.1500
     42 H42        -3.6905    7.1114   51.4061 H       1  ZINC000426805817    0.1300
     43 H43        -4.8980    7.7274   53.4400 H       1  ZINC000426805817    0.1300
     44 H44        -4.8655    6.2499   55.4043 H       1  ZINC000426805817    0.1300
@<TRIPOS>BOND
     1     1     2   ar
     2     2     3   ar
     3     2     4    1
     4     4     5    1
     5     4     6    1
     6     4    17    1
     7     6     7    1
     8     6    30    1
     9     6    31    1
    10     7    16    1
    11     7     8    2
    12     8     9    1
    13     8    32    1
    14     9    10    1
    15     9    33    1
    16    10    16   ar
    17    10    11   ar
    18    11    12   ar
    19    11    34    1
    20    12    13   ar
    21    12    35    1
    22    13    14    1
    23    13    15   ar
    24    15    16   ar
    25    15    36    1
    26    17    18    1
    27    17    19    1
    28    17    20    1
    29    20    21    1
    30    20    37    1
    31    20    38    1
    32    21    29   ar
    33    21    22   ar
    34    22    26   ar
    35    22    23    1
    36    23    24    1
    37    23    39    1
    38    24    25    2
    39    24    40    1
    40    25    26    1
    41    25    41    1
    42    26    27   ar
    43    27    28   ar
    44    27    42    1
    45    28    29   ar
    46    28    43    1
    47    29    44    1
@<TRIPOS>SUBSTRUCTURE
     1 ZINC000426805817        1 TEMP              0 ****  ****    0 ROOT


##########                                Name:    ZINC000190927708
##########                DOCK_Rotatable_Bonds:                  10
##########                         Heavy_Atoms:                  26
##########                    Molecular_Weight:             358.437
##########                DOCK_Rotatable_Bonds:                  10
##########                       Formal_Charge:           0.0499998
##########                     HBond_Acceptors:                   6
##########                        HBond_Donors:                   1
##########                         Heavy_Atoms:                  26
##########                          Grid_Score:          -34.135403
##########                     Grid_vdw_energy:          -32.215916
##########                      Grid_es_energy:           -1.919486
##########           Internal_energy_repulsive:           24.253374

@<TRIPOS>MOLECULE
ZINC000190927708
 52 53 1 0 0
SMALL
USER_CHARGES


@<TRIPOS>ATOM
      1 C1         -7.2133   -0.2213   51.7296 C.3     1  ZINC000190927708   -0.1500
      2 C2         -5.8818    0.0934   51.0448 C.3     1  ZINC000190927708   -0.1500
      3 C3         -6.1239    1.0455   49.8719 C.3     1  ZINC000190927708    0.1000
      4 N4         -5.1610    2.1479   49.9311 N.am    1  ZINC000190927708   -0.5900
      5 C5         -3.9303    1.9968   49.4027 C.2     1  ZINC000190927708    0.5300
      6 O6         -3.6197    0.9477   48.8796 O.2     1  ZINC000190927708   -0.5300
      7 C7         -2.9404    3.1314   49.4620 C.3     1  ZINC000190927708   -0.0800
      8 C8         -1.5526    2.6011   49.2087 C.2     1  ZINC000190927708   -0.1700
      9 C9         -0.6716    2.4974   50.2342 C.2     1  ZINC000190927708    0.0000
     10 C10         0.6685    1.9780   49.9549 C.ar    1  ZINC000190927708   -0.1300
     11 C11         1.6199    1.8470   50.9714 C.ar    1  ZINC000190927708   -0.0500
     12 C12         2.8616    1.3579   50.6780 C.ar    1  ZINC000190927708   -0.1500
     13 C13         3.1871    0.9899   49.3800 C.ar    1  ZINC000190927708   -0.0600
     14 C14         2.2654    1.1108   48.3622 C.ar    1  ZINC000190927708   -0.1600
     15 C15         0.9951    1.6057   48.6370 C.ar    1  ZINC000190927708    0.1900
     16 N16         0.0533    1.7368   47.6386 N.am    1  ZINC000190927708   -0.6300
     17 C17        -1.1769    2.2090   47.9060 C.2     1  ZINC000190927708    0.5500
     18 O18        -1.9841    2.3115   46.9986 O.2     1  ZINC000190927708   -0.5300
     19 C19        -5.5356    3.4146   50.5646 C.3     1  ZINC000190927708    0.1500
     20 H20        -4.8977    4.2131   50.1854 H       1  ZINC000190927708    0.1400
     21 C21        -5.3605    3.2983   52.0801 C.3     1  ZINC000190927708   -0.1300
     22 C22        -5.4884    4.6838   52.7163 C.3     1  ZINC000190927708   -0.1500
     23 C23        -6.9751    3.7284   50.2478 C.2     1  ZINC000190927708    0.4500
     24 O24        -7.8557    3.3107   50.9619 O.2     1  ZINC000190927708   -0.5000
     25 O25        -7.2789    4.4719   49.1723 O.3     1  ZINC000190927708   -0.3500
     26 C26        -8.6831    4.7677   48.9507 C.3     1  ZINC000190927708    0.0600
     27 C27        -8.8250    5.6886   47.7372 C.3     1  ZINC000190927708   -0.1500
     28 H28        -7.8880   -0.6908   51.0137 H       1  ZINC000190927708    0.0600
     29 H29        -7.0408   -0.8996   52.5651 H       1  ZINC000190927708    0.0600
     30 H30        -7.6598    0.7024   52.0978 H       1  ZINC000190927708    0.0600
     31 H31        -5.2071    0.5629   51.7606 H       1  ZINC000190927708    0.0800
     32 H32        -5.4353   -0.8304   50.6766 H       1  ZINC000190927708    0.0700
     33 H33        -6.0003    0.5050   48.9335 H       1  ZINC000190927708    0.0900
     34 H34        -7.1367    1.4443   49.9308 H       1  ZINC000190927708    0.0900
     35 H35        -3.1906    3.8721   48.7024 H       1  ZINC000190927708    0.1100
     36 H36        -2.9778    3.5952   50.4477 H       1  ZINC000190927708    0.1200
     37 H37        -0.9520    2.7916   51.2347 H       1  ZINC000190927708    0.1400
     38 H38         1.3744    2.1314   51.9839 H       1  ZINC000190927708    0.1400
     39 H39         3.5964    1.2571   51.4632 H       1  ZINC000190927708    0.1300
     40 H40         4.1732    0.6051   49.1650 H       1  ZINC000190927708    0.1300
     41 H41         2.5285    0.8218   47.3554 H       1  ZINC000190927708    0.1300
     42 H42         0.2802    1.4808   46.7309 H       1  ZINC000190927708    0.4200
     43 H43        -6.1292    2.6400   52.4851 H       1  ZINC000190927708    0.0900
     44 H44        -4.3760    2.8863   52.3015 H       1  ZINC000190927708    0.0800
     45 H45        -5.3637    4.6009   53.7959 H       1  ZINC000190927708    0.0600
     46 H46        -4.7198    5.3420   52.3112 H       1  ZINC000190927708    0.0600
     47 H47        -6.4730    5.0957   52.4948 H       1  ZINC000190927708    0.0600
     48 H48        -9.2254    3.8399   48.7682 H       1  ZINC000190927708    0.0700
     49 H49        -9.0938    5.2613   49.8315 H       1  ZINC000190927708    0.0700
     50 H50        -8.2827    6.6164   47.9198 H       1  ZINC000190927708    0.0700
     51 H51        -8.4143    5.1950   46.8564 H       1  ZINC000190927708    0.0700
     52 H52        -9.8791    5.9107   47.5710 H       1  ZINC000190927708    0.0800
@<TRIPOS>BOND
     1     1     2    1
     2     1    28    1
     3     1    29    1
     4     1    30    1
     5     2     3    1
     6     2    31    1
     7     2    32    1
     8     3     4    1
     9     3    33    1
    10     3    34    1
    11     4     5   am
    12     4    19    1
    13     5     6    2
    14     5     7    1
    15     7     8    1
    16     7    35    1
    17     7    36    1
    18     8    17    1
    19     8     9    2
    20     9    10    1
    21     9    37    1
    22    10    15   ar
    23    10    11   ar
    24    11    12   ar
    25    11    38    1
    26    12    13   ar
    27    12    39    1
    28    13    14   ar
    29    13    40    1
    30    14    15   ar
    31    14    41    1
    32    15    16    1
    33    16    17   am
    34    16    42    1
    35    17    18    2
    36    19    20    1
    37    19    21    1
    38    19    23    1
    39    21    22    1
    40    21    43    1
    41    21    44    1
    42    22    45    1
    43    22    46    1
    44    22    47    1
    45    23    24    2
    46    23    25    1
    47    25    26    1
    48    26    27    1
    49    26    48    1
    50    26    49    1
    51    27    50    1
    52    27    51    1
    53    27    52    1
@<TRIPOS>SUBSTRUCTURE
     1 ZINC000190927708        1 TEMP              0 ****  ****    0 ROOT


##########                                Name:    ZINC000892249927
##########                DOCK_Rotatable_Bonds:                   8
##########                         Heavy_Atoms:                  27
##########                    Molecular_Weight:             364.487
##########                DOCK_Rotatable_Bonds:                   8
##########                       Formal_Charge:          -0.0300015
##########                     HBond_Acceptors:                   4
##########                        HBond_Donors:                   1
##########                         Heavy_Atoms:                  27
##########                          Grid_Score:          -34.123016
##########                     Grid_vdw_energy:          -32.348080
##########                      Grid_es_energy:           -1.774936
##########           Internal_energy_repulsive:           11.464247

@<TRIPOS>MOLECULE
ZINC000892249927
 55 58 1 0 0
SMALL
USER_CHARGES


@<TRIPOS>ATOM
      1 O1         -5.7003    2.7583   66.7612 O.2     1  ZINC000892249927   -0.5300
      2 C2         -5.3162    1.9592   65.9336 C.2     1  ZINC000892249927    0.5100
      3 C3         -3.8588    1.5807   65.8714 C.3     1  ZINC000892249927   -0.1400
      4 C4         -3.0275    2.8111   65.5026 C.3     1  ZINC000892249927   -0.1000
      5 C5         -1.5624    2.5650   65.8682 C.3     1  ZINC000892249927   -0.0800
      6 C6         -0.9329    1.6617   64.8391 C.ar    1  ZINC000892249927   -0.0900
      7 C7         -0.3105    0.4923   65.2341 C.ar    1  ZINC000892249927   -0.1100
      8 C8          0.2670   -0.3362   64.2901 C.ar    1  ZINC000892249927   -0.1100
      9 C9          0.2216    0.0044   62.9512 C.ar    1  ZINC000892249927   -0.0500
     10 C10         0.8516   -0.8986   61.9222 C.3     1  ZINC000892249927   -0.1200
     11 C11         2.1677   -0.4400   61.2910 C.3     1  ZINC000892249927   -0.1800
     12 C12         2.1627   -1.5915   62.2985 C.3     1  ZINC000892249927   -0.1700
     13 C13        -0.4020    1.1731   62.5561 C.ar    1  ZINC000892249927   -0.1200
     14 C14        -0.9828    1.9997   63.4997 C.ar    1  ZINC000892249927   -0.1100
     15 N15        -6.1936    1.4055   65.0734 N.am    1  ZINC000892249927   -0.7300
     16 C16        -7.6102    1.7736   65.1339 C.3     1  ZINC000892249927    0.1400
     17 H17        -7.7021    2.8313   65.3806 H       1  ZINC000892249927    0.1000
     18 C18        -8.3123    0.9346   66.2061 C.3     1  ZINC000892249927   -0.1700
     19 C19        -8.2446   -0.5432   65.8119 C.3     1  ZINC000892249927    0.0600
     20 O20        -8.8461   -0.7204   64.5278 O.3     1  ZINC000892249927   -0.3700
     21 C21        -8.2023    0.0033   63.4771 C.3     1  ZINC000892249927    0.1400
     22 H22        -7.1601   -0.3079   63.4070 H       1  ZINC000892249927    0.0700
     23 C23        -8.9001   -0.2792   62.1715 C.ar    1  ZINC000892249927   -0.1400
     24 C24       -10.2842   -0.2651   62.0980 C.ar    1  ZINC000892249927   -0.0700
     25 C25       -10.8831   -0.5303   60.8757 C.ar    1  ZINC000892249927   -0.1700
     26 C26       -10.0858   -0.7979   59.7793 C.ar    1  ZINC000892249927    0.1000
     27 N27        -8.7713   -0.8028   59.8862 N.ar    1  ZINC000892249927   -0.4900
     28 C28        -8.1678   -0.5500   61.0309 C.ar    1  ZINC000892249927    0.1300
     29 C29        -8.2679    1.5051   63.7768 C.3     1  ZINC000892249927   -0.1500
     30 H30        -3.5393    1.2043   66.8432 H       1  ZINC000892249927    0.0900
     31 H31        -3.7163    0.8066   65.1173 H       1  ZINC000892249927    0.0900
     32 H32        -3.1087    2.9967   64.4315 H       1  ZINC000892249927    0.0700
     33 H33        -3.3982    3.6775   66.0504 H       1  ZINC000892249927    0.0700
     34 H34        -1.0293    3.5153   65.8921 H       1  ZINC000892249927    0.0700
     35 H35        -1.5071    2.0923   66.8488 H       1  ZINC000892249927    0.0700
     36 H36        -0.2751    0.2261   66.2802 H       1  ZINC000892249927    0.1200
     37 H37         0.7538   -1.2496   64.5988 H       1  ZINC000892249927    0.1200
     38 H38         0.1547   -1.4490   61.2901 H       1  ZINC000892249927    0.1100
     39 H39         2.3369   -0.6887   60.2433 H       1  ZINC000892249927    0.1000
     40 H40         2.5779    0.5148   61.6199 H       1  ZINC000892249927    0.1000
     41 H41         2.5697   -1.3942   63.2902 H       1  ZINC000892249927    0.1000
     42 H42         2.3287   -2.5977   61.9135 H       1  ZINC000892249927    0.1000
     43 H43        -0.4378    1.4391   61.5100 H       1  ZINC000892249927    0.1200
     44 H44        -1.4700    2.9128   63.1909 H       1  ZINC000892249927    0.1200
     45 H45        -5.8869    0.7634   64.4141 H       1  ZINC000892249927    0.4000
     46 H46        -7.8148    1.0789   67.1651 H       1  ZINC000892249927    0.0800
     47 H47        -9.3548    1.2430   66.2853 H       1  ZINC000892249927    0.0800
     48 H48        -7.2029   -0.8615   65.7724 H       1  ZINC000892249927    0.0500
     49 H49        -8.7798   -1.1410   66.5496 H       1  ZINC000892249927    0.1000
     50 H50       -10.8821   -0.0530   62.9721 H       1  ZINC000892249927    0.1300
     51 H51       -11.9590   -0.5280   60.7820 H       1  ZINC000892249927    0.1400
     52 H52       -10.5444   -1.0058   58.8238 H       1  ZINC000892249927    0.1600
     53 H53        -7.0889   -0.5631   61.0797 H       1  ZINC000892249927    0.1600
     54 H54        -9.3093    1.8255   63.8068 H       1  ZINC000892249927    0.0900
     55 H55        -7.7389    2.0552   62.9985 H       1  ZINC000892249927    0.0800
@<TRIPOS>BOND
     1     1     2    2
     2     2     3    1
     3     2    15   am
     4     3     4    1
     5     3    30    1
     6     3    31    1
     7     4     5    1
     8     4    32    1
     9     4    33    1
    10     5     6    1
    11     5    34    1
    12     5    35    1
    13     6    14   ar
    14     6     7   ar
    15     7     8   ar
    16     7    36    1
    17     8     9   ar
    18     8    37    1
    19     9    10    1
    20     9    13   ar
    21    10    12    1
    22    10    11    1
    23    10    38    1
    24    11    12    1
    25    11    39    1
    26    11    40    1
    27    12    41    1
    28    12    42    1
    29    13    14   ar
    30    13    43    1
    31    14    44    1
    32    15    16    1
    33    15    45    1
    34    16    17    1
    35    16    29    1
    36    16    18    1
    37    18    19    1
    38    18    46    1
    39    18    47    1
    40    19    20    1
    41    19    48    1
    42    19    49    1
    43    20    21    1
    44    21    22    1
    45    21    23    1
    46    21    29    1
    47    23    28   ar
    48    23    24   ar
    49    24    25   ar
    50    24    50    1
    51    25    26   ar
    52    25    51    1
    53    26    27   ar
    54    26    52    1
    55    27    28   ar
    56    28    53    1
    57    29    54    1
    58    29    55    1
@<TRIPOS>SUBSTRUCTURE
     1 ZINC000892249927        1 TEMP              0 ****  ****    0 ROOT


##########                                Name:    ZINC000621594459
##########                DOCK_Rotatable_Bonds:                  10
##########                         Heavy_Atoms:                  25
##########                    Molecular_Weight:             389.497
##########                DOCK_Rotatable_Bonds:                  10
##########                       Formal_Charge:         -7.7486e-07
##########                     HBond_Acceptors:                  10
##########                        HBond_Donors:                   3
##########                         Heavy_Atoms:                  25
##########                          Grid_Score:          -34.095970
##########                     Grid_vdw_energy:          -33.811787
##########                      Grid_es_energy:           -0.284182
##########           Internal_energy_repulsive:           10.722300

@<TRIPOS>MOLECULE
ZINC000621594459
 48 49 1 0 0
SMALL
USER_CHARGES


@<TRIPOS>ATOM
      1 C1          1.8709    1.6498   51.1393 C.3     1  ZINC000621594459   -0.1600
      2 C2          2.7721    1.2251   49.9780 C.3     1  ZINC000621594459    0.1300
      3 C3          4.0489    0.5878   50.5299 C.3     1  ZINC000621594459   -0.1800
      4 N4          2.0641    0.2538   49.1404 N.am    1  ZINC000621594459   -1.1100
      5 S5          2.3999    0.1560   47.5218 S.o2    1  ZINC000621594459    2.6200
      6 O6          3.8004   -0.0788   47.4680 O.2     1  ZINC000621594459   -0.9500
      7 O7          1.4765   -0.8055   47.0299 O.2     1  ZINC000621594459   -0.9400
      8 C8          2.0056    1.8051   46.8773 C.3     1  ZINC000621594459   -0.6600
      9 C9          0.5061    1.8939   46.5863 C.3     1  ZINC000621594459    0.1300
     10 N10        -0.2229    2.1030   47.8397 N.am    1  ZINC000621594459   -0.7200
     11 C11        -1.5706    2.1139   47.8416 C.2     1  ZINC000621594459    0.5600
     12 O12        -2.1812    1.9488   46.8036 O.2     1  ZINC000621594459   -0.5200
     13 C13        -2.3064    2.3267   49.1062 C.ar    1  ZINC000621594459   -0.1500
     14 C14        -1.7460    3.1039   50.1208 C.ar    1  ZINC000621594459   -0.0300
     15 C15        -2.4381    3.2991   51.2984 C.ar    1  ZINC000621594459   -0.1400
     16 C16        -3.6848    2.7257   51.4746 C.ar    1  ZINC000621594459    0.0100
     17 C17        -4.2458    1.9536   50.4728 C.ar    1  ZINC000621594459   -0.6800
     18 S18        -5.8340    1.2274   50.7078 S.o2    1  ZINC000621594459    2.7000
     19 O19        -6.1700    0.5918   49.4820 O.2     1  ZINC000621594459   -0.9400
     20 O20        -5.7812    0.5405   51.9506 O.2     1  ZINC000621594459   -0.9500
     21 N21        -6.9153    2.4663   50.9038 N.am    1  ZINC000621594459   -1.0900
     22 C22        -7.0942    3.4576   49.8400 C.3     1  ZINC000621594459    0.0800
     23 C23        -8.3948    4.2634   49.8369 C.3     1  ZINC000621594459   -0.1800
     24 C24        -7.0804    4.9341   50.2408 C.3     1  ZINC000621594459   -0.1900
     25 C25        -3.5672    1.7558   49.2883 C.ar    1  ZINC000621594459    0.0400
     26 H26         2.3977    2.3724   51.7625 H       1  ZINC000621594459    0.0700
     27 H27         0.9614    2.1037   50.7461 H       1  ZINC000621594459    0.0700
     28 H28         1.6117    0.7756   51.7365 H       1  ZINC000621594459    0.0600
     29 H29         3.0313    2.0993   49.3807 H       1  ZINC000621594459    0.0900
     30 H30         3.7897   -0.2864   51.1272 H       1  ZINC000621594459    0.0700
     31 H31         4.6908    0.2851   49.7026 H       1  ZINC000621594459    0.0600
     32 H32         4.5756    1.3104   51.1532 H       1  ZINC000621594459    0.0700
     33 H33         1.3986   -0.3320   49.5340 H       1  ZINC000621594459    0.4200
     34 H34         2.2775    2.5586   47.6164 H       1  ZINC000621594459    0.1400
     35 H35         2.5649    1.9792   45.9581 H       1  ZINC000621594459    0.1400
     36 H36         0.3157    2.7286   45.9117 H       1  ZINC000621594459    0.0900
     37 H37         0.1708    0.9669   46.1212 H       1  ZINC000621594459    0.0900
     38 H38         0.2643    2.2335   48.6682 H       1  ZINC000621594459    0.4000
     39 H39        -0.7726    3.5515   49.9847 H       1  ZINC000621594459    0.1300
     40 H40        -2.0056    3.9003   52.0843 H       1  ZINC000621594459    0.1400
     41 H41        -4.2222    2.8812   52.3984 H       1  ZINC000621594459    0.1500
     42 H42        -7.4302    2.5356   51.7230 H       1  ZINC000621594459    0.4200
     43 H43        -6.6626    3.1941   48.8745 H       1  ZINC000621594459    0.1400
     44 H44        -8.8193    4.5300   48.8689 H       1  ZINC000621594459    0.1100
     45 H45        -9.1173    4.0559   50.6261 H       1  ZINC000621594459    0.1000
     46 H46        -6.9382    5.1679   51.2960 H       1  ZINC000621594459    0.1000
     47 H47        -6.6400    5.6421   49.5387 H       1  ZINC000621594459    0.1000
     48 H48        -4.0063    1.1533   48.5070 H       1  ZINC000621594459    0.1600
@<TRIPOS>BOND
     1     1     2    1
     2     1    26    1
     3     1    27    1
     4     1    28    1
     5     2     3    1
     6     2     4    1
     7     2    29    1
     8     3    30    1
     9     3    31    1
    10     3    32    1
    11     4     5   am
    12     4    33    1
    13     5     6    2
    14     5     7    2
    15     5     8    1
    16     8     9    1
    17     8    34    1
    18     8    35    1
    19     9    10    1
    20     9    36    1
    21     9    37    1
    22    10    11   am
    23    10    38    1
    24    11    12    2
    25    11    13    1
    26    13    25   ar
    27    13    14   ar
    28    14    15   ar
    29    14    39    1
    30    15    16   ar
    31    15    40    1
    32    16    17   ar
    33    16    41    1
    34    17    18    1
    35    17    25   ar
    36    18    19    2
    37    18    20    2
    38    18    21   am
    39    21    22    1
    40    21    42    1
    41    22    24    1
    42    22    23    1
    43    22    43    1
    44    23    24    1
    45    23    44    1
    46    23    45    1
    47    24    46    1
    48    24    47    1
    49    25    48    1
@<TRIPOS>SUBSTRUCTURE
     1 ZINC000621594459        1 TEMP              0 ****  ****    0 ROOT


##########                                Name:    ZINC000550217006
##########                DOCK_Rotatable_Bonds:                   7
##########                         Heavy_Atoms:                  27
##########                    Molecular_Weight:             367.404
##########                DOCK_Rotatable_Bonds:                   7
##########                       Formal_Charge:          0.00999951
##########                     HBond_Acceptors:                   7
##########                        HBond_Donors:                   3
##########                         Heavy_Atoms:                  27
##########                          Grid_Score:          -34.083408
##########                     Grid_vdw_energy:          -33.482128
##########                      Grid_es_energy:           -0.601281
##########           Internal_energy_repulsive:           11.635963

@<TRIPOS>MOLECULE
ZINC000550217006
 48 50 1 0 0
SMALL
USER_CHARGES


@<TRIPOS>ATOM
      1 C1         -7.8405    0.1076   60.0685 C.3     1  ZINC000550217006   -0.1500
      2 C2         -9.0764   -0.6263   59.5440 C.3     1  ZINC000550217006    0.0500
      3 O3         -9.2136   -0.3862   58.1420 O.3     1  ZINC000550217006   -0.3100
      4 C4        -10.2864   -0.9451   57.5224 C.ar    1  ZINC000550217006    0.1400
      5 C5        -11.1277   -1.7966   58.2234 C.ar    1  ZINC000550217006   -0.2100
      6 C6        -12.2180   -2.3631   57.5914 C.ar    1  ZINC000550217006   -0.0800
      7 C7        -12.4704   -2.0824   56.2615 C.ar    1  ZINC000550217006   -0.1600
      8 C8        -11.6329   -1.2342   55.5604 C.ar    1  ZINC000550217006   -0.0700
      9 C9        -10.5452   -0.6605   56.1893 C.ar    1  ZINC000550217006   -0.1200
     10 C10        -9.6332    0.2642   55.4249 C.3     1  ZINC000550217006   -0.0800
     11 C11        -9.3945   -0.2994   54.0226 C.3     1  ZINC000550217006    0.1300
     12 N12        -8.2471    0.3774   53.4131 N.am    1  ZINC000550217006   -0.7200
     13 C13        -7.7496   -0.0633   52.2406 C.2     1  ZINC000550217006    0.5600
     14 O14        -8.2518   -1.0230   51.6898 O.2     1  ZINC000550217006   -0.5300
     15 C15        -6.5910    0.6219   51.6237 C.ar    1  ZINC000550217006   -0.0800
     16 C16        -5.9705    0.0729   50.4990 C.ar    1  ZINC000550217006   -0.1000
     17 C17        -4.8954    0.7109   49.9306 C.ar    1  ZINC000550217006   -0.0500
     18 C18        -4.4089    1.9147   50.4668 C.ar    1  ZINC000550217006   -0.1300
     19 C19        -5.0277    2.4676   51.5874 C.ar    1  ZINC000550217006    0.1800
     20 C20        -6.1219    1.8152   52.1585 C.ar    1  ZINC000550217006   -0.0900
     21 N21        -4.6228    3.6542   52.1744 N.am    1  ZINC000550217006   -0.6600
     22 C22        -3.3631    4.0328   52.3680 C.2     1  ZINC000550217006    0.5100
     23 O23        -3.1446    5.0809   52.9375 O.2     1  ZINC000550217006   -0.5100
     24 C24        -2.2010    3.1992   51.9018 C.3     1  ZINC000550217006    0.0900
     25 N25        -2.2369    3.1131   50.4418 N.am    1  ZINC000550217006   -0.7100
     26 C26        -3.2515    2.5326   49.8036 C.2     1  ZINC000550217006    0.5600
     27 O27        -3.2182    2.5121   48.5886 O.2     1  ZINC000550217006   -0.5200
     28 H28        -7.9512    1.1775   59.8922 H       1  ZINC000550217006    0.0700
     29 H29        -7.7358   -0.0756   61.1378 H       1  ZINC000550217006    0.0800
     30 H30        -6.9541   -0.2564   59.5490 H       1  ZINC000550217006    0.0700
     31 H31        -8.9656   -1.6963   59.7201 H       1  ZINC000550217006    0.0600
     32 H32        -9.9628   -0.2623   60.0635 H       1  ZINC000550217006    0.0600
     33 H33       -10.9305   -2.0168   59.2622 H       1  ZINC000550217006    0.1300
     34 H34       -12.8732   -3.0261   58.1367 H       1  ZINC000550217006    0.1300
     35 H35       -13.3229   -2.5265   55.7692 H       1  ZINC000550217006    0.1300
     36 H36       -11.8320   -1.0167   54.5214 H       1  ZINC000550217006    0.1300
     37 H37       -10.0958    1.2481   55.3471 H       1  ZINC000550217006    0.0800
     38 H38        -8.6812    0.3506   55.9487 H       1  ZINC000550217006    0.0800
     39 H39        -9.1920   -1.3682   54.0902 H       1  ZINC000550217006    0.0700
     40 H40       -10.2807   -0.1356   53.4095 H       1  ZINC000550217006    0.0700
     41 H41        -7.8454    1.1428   53.8534 H       1  ZINC000550217006    0.4000
     42 H42        -6.3355   -0.8520   50.0773 H       1  ZINC000550217006    0.1400
     43 H43        -4.4184    0.2821   49.0618 H       1  ZINC000550217006    0.1500
     44 H44        -6.6028    2.2377   53.0284 H       1  ZINC000550217006    0.1500
     45 H45        -5.3184    4.2624   52.4697 H       1  ZINC000550217006    0.4200
     46 H46        -1.2675    3.6652   52.2174 H       1  ZINC000550217006    0.1300
     47 H47        -2.2746    2.1990   52.3285 H       1  ZINC000550217006    0.1000
     48 H48        -1.5053    3.4877   49.9269 H       1  ZINC000550217006    0.4200
@<TRIPOS>BOND
     1     1     2    1
     2     1    28    1
     3     1    29    1
     4     1    30    1
     5     2     3    1
     6     2    31    1
     7     2    32    1
     8     3     4    1
     9     4     9   ar
    10     4     5   ar
    11     5     6   ar
    12     5    33    1
    13     6     7   ar
    14     6    34    1
    15     7     8   ar
    16     7    35    1
    17     8     9   ar
    18     8    36    1
    19     9    10    1
    20    10    11    1
    21    10    37    1
    22    10    38    1
    23    11    12    1
    24    11    39    1
    25    11    40    1
    26    12    13   am
    27    12    41    1
    28    13    14    2
    29    13    15    1
    30    15    20   ar
    31    15    16   ar
    32    16    17   ar
    33    16    42    1
    34    17    18   ar
    35    17    43    1
    36    18    26    1
    37    18    19   ar
    38    19    20   ar
    39    19    21    1
    40    20    44    1
    41    21    22   am
    42    21    45    1
    43    22    23    2
    44    22    24    1
    45    24    25    1
    46    24    46    1
    47    24    47    1
    48    25    26   am
    49    25    48    1
    50    26    27    2
@<TRIPOS>SUBSTRUCTURE
     1 ZINC000550217006        1 TEMP              0 ****  ****    0 ROOT


##########                                Name:    ZINC000013809319
##########                DOCK_Rotatable_Bonds:                  10
##########                         Heavy_Atoms:                  30
##########                    Molecular_Weight:             407.469
##########                DOCK_Rotatable_Bonds:                  10
##########                       Formal_Charge:         -0.00999978
##########                     HBond_Acceptors:                   7
##########                        HBond_Donors:                   1
##########                         Heavy_Atoms:                  30
##########                          Grid_Score:          -34.074661
##########                     Grid_vdw_energy:          -34.237789
##########                      Grid_es_energy:            0.163127
##########           Internal_energy_repulsive:           14.306681

@<TRIPOS>MOLECULE
ZINC000013809319
 55 57 1 0 0
SMALL
USER_CHARGES


@<TRIPOS>ATOM
      1 C1          3.1838    0.1944   47.9697 C.3     1  ZINC000013809319   -0.1500
      2 C2          3.3799    1.6463   48.4110 C.3     1  ZINC000013809319    0.0500
      3 O3          2.5118    2.4947   47.6569 O.3     1  ZINC000013809319   -0.3100
      4 C4          1.1974    2.4909   47.9976 C.ar    1  ZINC000013809319    0.1500
      5 C5          0.8015    2.9767   49.2376 C.ar    1  ZINC000013809319   -0.2200
      6 C6         -0.5315    2.9748   49.5864 C.ar    1  ZINC000013809319   -0.0300
      7 C7         -1.4845    2.4842   48.6924 C.ar    1  ZINC000013809319   -0.1100
      8 C8         -2.9173    2.4810   49.0633 C.2     1  ZINC000013809319    0.2300
      9 C9         -3.5261    3.6440   49.5065 C.2     1  ZINC000013809319   -0.2900
     10 C10        -4.8888    3.5966   49.8479 C.2     1  ZINC000013809319    0.5300
     11 O11        -5.4664    4.5966   50.2424 O.2     1  ZINC000013809319   -0.5400
     12 N12        -5.5461    2.4239   49.7304 N.am    1  ZINC000013809319   -0.5100
     13 C13        -6.9669    2.3465   50.0790 C.3     1  ZINC000013809319    0.0700
     14 C14        -7.1136    1.7696   51.4635 C.2     1  ZINC000013809319    0.5000
     15 O15        -6.5177    2.2684   52.3946 O.2     1  ZINC000013809319   -0.5200
     16 N16        -7.9072    0.6994   51.6669 N.am    1  ZINC000013809319   -0.7200
     17 C17        -8.0513    0.1396   53.0131 C.3     1  ZINC000013809319    0.1300
     18 C18        -9.2331    0.8073   53.7191 C.3     1  ZINC000013809319   -0.0800
     19 C19        -9.4412    0.1651   55.0665 C.ar    1  ZINC000013809319   -0.1200
     20 C20       -10.2997   -0.9093   55.1949 C.ar    1  ZINC000013809319   -0.0800
     21 C21       -10.4915   -1.4986   56.4311 C.ar    1  ZINC000013809319   -0.1500
     22 C22        -9.8245   -1.0148   57.5411 C.ar    1  ZINC000013809319   -0.0800
     23 C23        -8.9643    0.0594   57.4179 C.ar    1  ZINC000013809319   -0.2100
     24 C24        -8.7662    0.6491   56.1780 C.ar    1  ZINC000013809319    0.1300
     25 O25        -7.9207    1.7057   56.0541 O.3     1  ZINC000013809319   -0.3100
     26 C26        -7.2916    2.1766   57.2478 C.3     1  ZINC000013809319    0.0300
     27 C27        -4.9017    1.3232   49.2934 C.2     1  ZINC000013809319    0.3900
     28 N28        -3.6392    1.3508   48.9675 N.2     1  ZINC000013809319   -0.5300
     29 C29        -1.0831    1.9969   47.4474 C.ar    1  ZINC000013809319   -0.0500
     30 C30         0.2510    2.0067   47.1031 C.ar    1  ZINC000013809319   -0.1600
     31 H31         2.1486   -0.1007   48.1409 H       1  ZINC000013809319    0.0700
     32 H32         3.4173    0.1025   46.9090 H       1  ZINC000013809319    0.0700
     33 H33         3.8460   -0.4528   48.5448 H       1  ZINC000013809319    0.0800
     34 H34         3.1465    1.7382   49.4718 H       1  ZINC000013809319    0.0600
     35 H35         4.4151    1.9414   48.2399 H       1  ZINC000013809319    0.0600
     36 H36         1.5395    3.3558   49.9290 H       1  ZINC000013809319    0.1300
     37 H37        -0.8386    3.3523   50.5506 H       1  ZINC000013809319    0.1400
     38 H38        -2.9670    4.5646   49.5880 H       1  ZINC000013809319    0.1600
     39 H39        -7.4021    3.3455   50.0536 H       1  ZINC000013809319    0.1300
     40 H40        -7.4825    1.7071   49.3624 H       1  ZINC000013809319    0.1300
     41 H41        -8.3829    0.2996   50.9219 H       1  ZINC000013809319    0.4000
     42 H42        -8.2289   -0.9335   52.9432 H       1  ZINC000013809319    0.0700
     43 H43        -7.1390    0.3209   53.5814 H       1  ZINC000013809319    0.0700
     44 H44        -9.0249    1.8691   53.8510 H       1  ZINC000013809319    0.0800
     45 H45       -10.1327    0.6856   53.1158 H       1  ZINC000013809319    0.0800
     46 H46       -10.8219   -1.2890   54.3292 H       1  ZINC000013809319    0.1300
     47 H47       -11.1638   -2.3382   56.5296 H       1  ZINC000013809319    0.1300
     48 H48        -9.9762   -1.4765   58.5056 H       1  ZINC000013809319    0.1300
     49 H49        -8.4437    0.4372   58.2854 H       1  ZINC000013809319    0.1300
     50 H50        -6.6965    1.3751   57.6854 H       1  ZINC000013809319    0.0600
     51 H51        -6.6446    3.0206   57.0087 H       1  ZINC000013809319    0.1000
     52 H52        -8.0539    2.4934   57.9594 H       1  ZINC000013809319    0.0600
     53 H53        -5.4465    0.3948   49.2070 H       1  ZINC000013809319    0.2000
     54 H54        -1.8179    1.6166   46.7533 H       1  ZINC000013809319    0.1400
     55 H55         0.5622    1.6302   46.1400 H       1  ZINC000013809319    0.1400
@<TRIPOS>BOND
     1     1     2    1
     2     1    31    1
     3     1    32    1
     4     1    33    1
     5     2     3    1
     6     2    34    1
     7     2    35    1
     8     3     4    1
     9     4    30   ar
    10     4     5   ar
    11     5     6   ar
    12     5    36    1
    13     6     7   ar
    14     6    37    1
    15     7     8    1
    16     7    29   ar
    17     8    28    1
    18     8     9    2
    19     9    10    1
    20     9    38    1
    21    10    11    2
    22    10    12   am
    23    12    13    1
    24    12    27    1
    25    13    14    1
    26    13    39    1
    27    13    40    1
    28    14    15    2
    29    14    16   am
    30    16    17    1
    31    16    41    1
    32    17    18    1
    33    17    42    1
    34    17    43    1
    35    18    19    1
    36    18    44    1
    37    18    45    1
    38    19    24   ar
    39    19    20   ar
    40    20    21   ar
    41    20    46    1
    42    21    22   ar
    43    21    47    1
    44    22    23   ar
    45    22    48    1
    46    23    24   ar
    47    23    49    1
    48    24    25    1
    49    25    26    1
    50    26    50    1
    51    26    51    1
    52    26    52    1
    53    27    28    2
    54    27    53    1
    55    29    30   ar
    56    29    54    1
    57    30    55    1
@<TRIPOS>SUBSTRUCTURE
     1 ZINC000013809319        1 TEMP              0 ****  ****    0 ROOT


##########                                Name:    ZINC001060578637
##########                DOCK_Rotatable_Bonds:                  10
##########                         Heavy_Atoms:                  25
##########                    Molecular_Weight:             345.401
##########                DOCK_Rotatable_Bonds:                  10
##########                       Formal_Charge:          -0.0400001
##########                     HBond_Acceptors:                   8
##########                        HBond_Donors:                   3
##########                         Heavy_Atoms:                  25
##########                          Grid_Score:          -34.054115
##########                     Grid_vdw_energy:          -31.007313
##########                      Grid_es_energy:           -3.046804
##########           Internal_energy_repulsive:           14.053668

@<TRIPOS>MOLECULE
ZINC001060578637
 48 49 1 0 0
SMALL
USER_CHARGES


@<TRIPOS>ATOM
      1 C1          2.7262    0.9240   48.1141 C.3     1  ZINC001060578637   -0.1500
      2 C2          3.5761    0.9430   49.3862 C.3     1  ZINC001060578637   -0.1300
      3 C3          2.6603    0.9223   50.6118 C.3     1  ZINC001060578637    0.0700
      4 H4          3.2647    0.8482   51.5157 H       1  ZINC001060578637    0.0900
      5 O5          1.7830   -0.2029   50.5318 O.3     1  ZINC001060578637   -0.3600
      6 C6          2.4555   -1.4550   50.3831 C.3     1  ZINC001060578637    0.0300
      7 C7          1.8478    2.1908   50.6533 C.2     1  ZINC001060578637    0.5000
      8 O8          2.3584    3.2261   51.0250 O.2     1  ZINC001060578637   -0.5200
      9 N9          0.5536    2.1746   50.2772 N.am    1  ZINC001060578637   -0.7300
     10 C10        -0.2359    3.4081   50.3159 C.3     1  ZINC001060578637    0.1600
     11 C11        -1.7019    3.0646   50.3761 C.ar    1  ZINC001060578637   -0.1100
     12 C12        -2.4194    2.8894   49.2076 C.ar    1  ZINC001060578637   -0.0900
     13 C13        -3.7642    2.5742   49.2629 C.ar    1  ZINC001060578637   -0.1100
     14 C14        -4.3914    2.4338   50.4867 C.ar    1  ZINC001060578637   -0.0900
     15 C15        -5.8576    2.0907   50.5471 C.3     1  ZINC001060578637    0.1800
     16 H16        -6.2197    2.2222   51.5668 H       1  ZINC001060578637    0.1000
     17 C17        -6.0592    0.6360   50.1180 C.3     1  ZINC001060578637   -0.1600
     18 N18        -6.6033    2.9733   49.6464 N.am    1  ZINC001060578637   -0.7000
     19 C19        -6.9063    4.2288   50.0315 C.2     1  ZINC001060578637    0.6100
     20 O20        -6.5621    4.6285   51.1271 O.2     1  ZINC001060578637   -0.5300
     21 C21        -7.6553    5.1177   49.1243 C.2     1  ZINC001060578637    0.1200
     22 N22        -7.6981    6.4320   49.1744 N.2     1  ZINC001060578637   -0.2400
     23 N23        -8.4487    6.8723   48.2277 N.2     1  ZINC001060578637   -0.2900
     24 C24        -8.9212    5.8696   47.5283 C.2     1  ZINC001060578637    0.1900
     25 N25        -8.4350    4.7325   48.0643 N.pl3   1  ZINC001060578637   -0.5500
     26 C26        -3.6736    2.6076   51.6552 C.ar    1  ZINC001060578637   -0.1100
     27 C27        -2.3280    2.9189   51.6000 C.ar    1  ZINC001060578637   -0.0900
     28 H28         3.3789    0.9074   47.2414 H       1  ZINC001060578637    0.0600
     29 H29         2.0945    0.0358   48.1123 H       1  ZINC001060578637    0.0500
     30 H30         2.0998    1.8155   48.0824 H       1  ZINC001060578637    0.0600
     31 H31         4.2249    0.0673   49.4028 H       1  ZINC001060578637    0.0800
     32 H32         4.1851    1.8468   49.4030 H       1  ZINC001060578637    0.0800
     33 H33         1.7260   -2.2645   50.4075 H       1  ZINC001060578637    0.0900
     34 H34         2.9853   -1.4719   49.4307 H       1  ZINC001060578637    0.0500
     35 H35         3.1683   -1.5835   51.1977 H       1  ZINC001060578637    0.0400
     36 H36         0.1449    1.3463   49.9811 H       1  ZINC001060578637    0.4000
     37 H37         0.0381    3.9874   51.1976 H       1  ZINC001060578637    0.0800
     38 H38        -0.0369    3.9951   49.4192 H       1  ZINC001060578637    0.0800
     39 H39        -1.9294    2.9990   48.2515 H       1  ZINC001060578637    0.1300
     40 H40        -4.3249    2.4381   48.3499 H       1  ZINC001060578637    0.1300
     41 H41        -5.6970    0.5045   49.0984 H       1  ZINC001060578637    0.0600
     42 H42        -5.5044   -0.0207   50.7881 H       1  ZINC001060578637    0.0700
     43 H43        -7.1196    0.3879   50.1617 H       1  ZINC001060578637    0.0700
     44 H44        -6.8789    2.6540   48.7729 H       1  ZINC001060578637    0.4100
     45 H45        -9.5784    5.9417   46.6743 H       1  ZINC001060578637    0.2300
     46 H46        -8.6064    3.8261   47.7646 H       1  ZINC001060578637    0.4400
     47 H47        -4.1636    2.4975   52.6114 H       1  ZINC001060578637    0.1300
     48 H48        -1.7672    3.0548   52.5130 H       1  ZINC001060578637    0.1300
@<TRIPOS>BOND
     1     1     2    1
     2     1    28    1
     3     1    29    1
     4     1    30    1
     5     2     3    1
     6     2    31    1
     7     2    32    1
     8     3     4    1
     9     3     5    1
    10     3     7    1
    11     5     6    1
    12     6    33    1
    13     6    34    1
    14     6    35    1
    15     7     8    2
    16     7     9   am
    17     9    10    1
    18     9    36    1
    19    10    11    1
    20    10    37    1
    21    10    38    1
    22    11    27   ar
    23    11    12   ar
    24    12    13   ar
    25    12    39    1
    26    13    14   ar
    27    13    40    1
    28    14    15    1
    29    14    26   ar
    30    15    16    1
    31    15    17    1
    32    15    18    1
    33    17    41    1
    34    17    42    1
    35    17    43    1
    36    18    19   am
    37    18    44    1
    38    19    20    2
    39    19    21    1
    40    21    25    1
    41    21    22    2
    42    22    23    1
    43    23    24    2
    44    24    25    1
    45    24    45    1
    46    25    46    1
    47    26    27   ar
    48    26    47    1
    49    27    48    1
@<TRIPOS>SUBSTRUCTURE
     1 ZINC001060578637        1 TEMP              0 ****  ****    0 ROOT


##########                                Name:    ZINC000050607728
##########                DOCK_Rotatable_Bonds:                  10
##########                         Heavy_Atoms:                  31
##########                    Molecular_Weight:             416.476
##########                DOCK_Rotatable_Bonds:                  10
##########                       Formal_Charge:          -0.0199995
##########                     HBond_Acceptors:                   6
##########                        HBond_Donors:                   1
##########                         Heavy_Atoms:                  31
##########                          Grid_Score:          -34.023376
##########                     Grid_vdw_energy:          -33.502922
##########                      Grid_es_energy:           -0.520455
##########           Internal_energy_repulsive:           16.604115

@<TRIPOS>MOLECULE
ZINC000050607728
 55 57 1 0 0
SMALL
USER_CHARGES


@<TRIPOS>ATOM
      1 C1         -0.0483    2.7297   50.8184 C.3     1  ZINC000050607728    0.0800
      2 N2         -1.5129    2.7294   50.8522 N.am    1  ZINC000050607728   -0.6200
      3 C3         -2.2163    2.9436   52.1193 C.3     1  ZINC000050607728    0.0700
      4 C4         -2.2132    2.5320   49.7178 C.2     1  ZINC000050607728    0.5600
      5 O5         -1.6296    2.3543   48.6664 O.2     1  ZINC000050607728   -0.5300
      6 C6         -3.6912    2.5317   49.7520 C.ar    1  ZINC000050607728   -0.1400
      7 C7         -4.3967    3.7223   49.5722 C.ar    1  ZINC000050607728   -0.0800
      8 C8         -5.7760    3.7151   49.6048 C.ar    1  ZINC000050607728   -0.1300
      9 C9         -6.4597    2.5311   49.8156 C.ar    1  ZINC000050607728   -0.0700
     10 C10        -5.7663    1.3471   49.9951 C.ar    1  ZINC000050607728   -0.1100
     11 C11        -6.5194    0.0620   50.2246 C.3     1  ZINC000050607728    0.1100
     12 O12        -7.6464    0.3122   51.1053 O.3     1  ZINC000050607728   -0.3400
     13 C13        -7.3740    0.4934   52.4071 C.2     1  ZINC000050607728    0.4700
     14 O14        -6.4599   -0.1059   52.9222 O.2     1  ZINC000050607728   -0.5000
     15 C15        -8.2083    1.4441   53.2263 C.3     1  ZINC000050607728    0.2000
     16 H16        -8.4215    2.3380   52.6401 H       1  ZINC000050607728    0.1400
     17 N17        -9.4666    0.7929   53.5990 N.am    1  ZINC000050607728   -0.7100
     18 C18       -10.5709    0.9821   52.8500 C.2     1  ZINC000050607728    0.5700
     19 O19       -10.5226    1.6918   51.8644 O.2     1  ZINC000050607728   -0.5200
     20 C20       -11.8412    0.3263   53.2271 C.ar    1  ZINC000050607728   -0.1400
     21 C21       -11.9010   -0.4861   54.3605 C.ar    1  ZINC000050607728   -0.0800
     22 C22       -13.0896   -1.0948   54.7071 C.ar    1  ZINC000050607728   -0.1300
     23 C23       -14.2205   -0.9016   53.9339 C.ar    1  ZINC000050607728   -0.0900
     24 C24       -14.1678   -0.0979   52.8090 C.ar    1  ZINC000050607728   -0.1300
     25 C25       -12.9872    0.5215   52.4547 C.ar    1  ZINC000050607728   -0.0600
     26 C26        -7.4535    1.8290   54.4725 C.ar    1  ZINC000050607728   -0.1000
     27 C27        -7.8814    1.3776   55.7069 C.ar    1  ZINC000050607728   -0.1000
     28 C28        -7.1890    1.7306   56.8501 C.ar    1  ZINC000050607728   -0.1200
     29 C29        -6.0685    2.5349   56.7588 C.ar    1  ZINC000050607728   -0.1100
     30 C30        -5.6400    2.9857   55.5242 C.ar    1  ZINC000050607728   -0.1200
     31 C31        -6.3299    2.6291   54.3806 C.ar    1  ZINC000050607728   -0.0800
     32 C32        -4.3875    1.3395   49.9586 C.ar    1  ZINC000050607728   -0.0400
     33 H33         0.3192    1.7168   50.9835 H       1  ZINC000050607728    0.0600
     34 H34         0.2926    3.0858   49.8462 H       1  ZINC000050607728    0.0800
     35 H35         0.3331    3.3865   51.6001 H       1  ZINC000050607728    0.0700
     36 H36        -2.3197    4.0133   52.3012 H       1  ZINC000050607728    0.0600
     37 H37        -3.2046    2.4865   52.0682 H       1  ZINC000050607728    0.0800
     38 H38        -1.6480    2.4903   52.9316 H       1  ZINC000050607728    0.0700
     39 H39        -3.8640    4.6475   49.4082 H       1  ZINC000050607728    0.1400
     40 H40        -6.3232    4.6358   49.4658 H       1  ZINC000050607728    0.1400
     41 H41        -7.5394    2.5309   49.8406 H       1  ZINC000050607728    0.1300
     42 H42        -6.8816   -0.3221   49.2711 H       1  ZINC000050607728    0.0900
     43 H43        -5.8557   -0.6710   50.6832 H       1  ZINC000050607728    0.0900
     44 H44        -9.5048    0.2256   54.3848 H       1  ZINC000050607728    0.4100
     45 H45       -11.0188   -0.6383   54.9646 H       1  ZINC000050607728    0.1300
     46 H46       -13.1372   -1.7237   55.5839 H       1  ZINC000050607728    0.1300
     47 H47       -15.1484   -1.3806   54.2095 H       1  ZINC000050607728    0.1300
     48 H48       -15.0541    0.0485   52.2094 H       1  ZINC000050607728    0.1300
     49 H49       -12.9475    1.1489   51.5765 H       1  ZINC000050607728    0.1400
     50 H50        -8.7568    0.7492   55.7783 H       1  ZINC000050607728    0.1200
     51 H51        -7.5237    1.3784   57.8146 H       1  ZINC000050607728    0.1200
     52 H52        -5.5279    2.8113   57.6520 H       1  ZINC000050607728    0.1200
     53 H53        -4.7646    3.6144   55.4529 H       1  ZINC000050607728    0.1300
     54 H54        -5.9952    2.9813   53.4162 H       1  ZINC000050607728    0.1300
     55 H55        -3.8474    0.4147   50.0984 H       1  ZINC000050607728    0.1300
@<TRIPOS>BOND
     1     1     2    1
     2     1    33    1
     3     1    34    1
     4     1    35    1
     5     2     3    1
     6     2     4   am
     7     3    36    1
     8     3    37    1
     9     3    38    1
    10     4     5    2
    11     4     6    1
    12     6    32   ar
    13     6     7   ar
    14     7     8   ar
    15     7    39    1
    16     8     9   ar
    17     8    40    1
    18     9    10   ar
    19     9    41    1
    20    10    11    1
    21    10    32   ar
    22    11    12    1
    23    11    42    1
    24    11    43    1
    25    12    13    1
    26    13    14    2
    27    13    15    1
    28    15    16    1
    29    15    17    1
    30    15    26    1
    31    17    18   am
    32    17    44    1
    33    18    19    2
    34    18    20    1
    35    20    25   ar
    36    20    21   ar
    37    21    22   ar
    38    21    45    1
    39    22    23   ar
    40    22    46    1
    41    23    24   ar
    42    23    47    1
    43    24    25   ar
    44    24    48    1
    45    25    49    1
    46    26    31   ar
    47    26    27   ar
    48    27    28   ar
    49    27    50    1
    50    28    29   ar
    51    28    51    1
    52    29    30   ar
    53    29    52    1
    54    30    31   ar
    55    30    53    1
    56    31    54    1
    57    32    55    1
@<TRIPOS>SUBSTRUCTURE
     1 ZINC000050607728        1 TEMP              0 ****  ****    0 ROOT


##########                                Name:    ZINC000432253027
##########                DOCK_Rotatable_Bonds:                   8
##########                         Heavy_Atoms:                  26
##########                    Molecular_Weight:             401.436
##########                DOCK_Rotatable_Bonds:                   8
##########                       Formal_Charge:         1.19209e-07
##########                     HBond_Acceptors:                  11
##########                        HBond_Donors:                   0
##########                         Heavy_Atoms:                  26
##########                          Grid_Score:          -34.019821
##########                     Grid_vdw_energy:          -33.037865
##########                      Grid_es_energy:           -0.981955
##########           Internal_energy_repulsive:            8.896739

@<TRIPOS>MOLECULE
ZINC000432253027
 40 42 1 0 0
SMALL
USER_CHARGES


@<TRIPOS>ATOM
      1 C1         -0.9032    3.4078   51.9985 C.3     1  ZINC000432253027    0.0300
      2 O2         -1.6619    3.7959   50.8514 O.3     1  ZINC000432253027   -0.3100
      3 C3         -1.2497    3.3176   49.6489 C.ar    1  ZINC000432253027    0.1500
      4 C4          0.0580    3.5108   49.2350 C.ar    1  ZINC000432253027   -0.2100
      5 C5          0.4763    3.0240   48.0107 C.ar    1  ZINC000432253027   -0.0600
      6 C6         -0.4055    2.3414   47.1913 C.ar    1  ZINC000432253027   -0.1600
      7 C7         -1.7113    2.1407   47.5893 C.ar    1  ZINC000432253027   -0.0300
      8 C8         -2.1436    2.6221   48.8250 C.ar    1  ZINC000432253027   -0.0600
      9 C9         -3.5408    2.4106   49.2571 C.2     1  ZINC000432253027    0.1200
     10 N10        -4.1123    1.2526   49.4275 N.2     1  ZINC000432253027   -0.4600
     11 C11        -5.3668    1.2578   49.8174 C.2     1  ZINC000432253027    0.0800
     12 C12        -6.1378   -0.0160   50.0498 C.3     1  ZINC000432253027   -0.0200
     13 S13        -6.5022   -0.1884   51.8184 S.3     1  ZINC000432253027   -0.1700
     14 C14        -8.3062   -0.0101   51.8827 C.3     1  ZINC000432253027   -0.0300
     15 C15        -8.7650   -0.0595   53.3173 C.2     1  ZINC000432253027    0.2100
     16 N16        -9.5205   -0.9792   53.8662 N.2     1  ZINC000432253027   -0.2700
     17 N17        -9.6889   -0.6686   55.1052 N.2     1  ZINC000432253027   -0.0500
     18 N18        -9.0604    0.4254   55.3610 N.2     1  ZINC000432253027   -0.0700
     19 N19        -8.4737    0.8294   54.2851 N.pl3   1  ZINC000432253027   -0.3100
     20 C20        -7.6529    2.0342   54.1417 C.3     1  ZINC000432253027    0.0700
     21 C21        -8.0618    3.0591   55.2015 C.3     1  ZINC000432253027    0.4300
     22 F22        -9.4279    3.3354   55.0804 F       1  ZINC000432253027   -0.1500
     23 F23        -7.8018    2.5420   56.4752 F       1  ZINC000432253027   -0.1700
     24 F24        -7.3298    4.2372   55.0181 F       1  ZINC000432253027   -0.1700
     25 C25        -5.9167    2.4630   49.9958 C.2     1  ZINC000432253027   -0.2500
     26 S26        -4.6990    3.6841   49.6319 S.3     1  ZINC000432253027    0.1600
     27 H27        -1.3384    3.8574   52.8911 H       1  ZINC000432253027    0.1000
     28 H28        -0.9189    2.3221   52.0942 H       1  ZINC000432253027    0.0600
     29 H29         0.1262    3.7477   51.8854 H       1  ZINC000432253027    0.0600
     30 H30         0.7514    4.0427   49.8694 H       1  ZINC000432253027    0.1400
     31 H31         1.4966    3.1776   47.6917 H       1  ZINC000432253027    0.1300
     32 H32        -0.0704    1.9643   46.2363 H       1  ZINC000432253027    0.1300
     33 H33        -2.3966    1.6077   46.9468 H       1  ZINC000432253027    0.1400
     34 H34        -7.0714    0.0168   49.4880 H       1  ZINC000432253027    0.1000
     35 H35        -5.5432   -0.8666   49.7167 H       1  ZINC000432253027    0.1100
     36 H36        -8.5929    0.9447   51.4422 H       1  ZINC000432253027    0.1100
     37 H37        -8.7717   -0.8222   51.3242 H       1  ZINC000432253027    0.1300
     38 H38        -6.6021    1.7757   54.2728 H       1  ZINC000432253027    0.1500
     39 H39        -7.8015    2.4591   53.1490 H       1  ZINC000432253027    0.1600
     40 H40        -6.9313    2.6552   50.3121 H       1  ZINC000432253027    0.1800
@<TRIPOS>BOND
     1     1     2    1
     2     1    27    1
     3     1    28    1
     4     1    29    1
     5     2     3    1
     6     3     8   ar
     7     3     4   ar
     8     4     5   ar
     9     4    30    1
    10     5     6   ar
    11     5    31    1
    12     6     7   ar
    13     6    32    1
    14     7     8   ar
    15     7    33    1
    16     8     9    1
    17     9    26    1
    18     9    10    2
    19    10    11    1
    20    11    12    1
    21    11    25    2
    22    12    13    1
    23    12    34    1
    24    12    35    1
    25    13    14    1
    26    14    15    1
    27    14    36    1
    28    14    37    1
    29    15    19    1
    30    15    16    2
    31    16    17    1
    32    17    18    2
    33    18    19    1
    34    19    20    1
    35    20    21    1
    36    20    38    1
    37    20    39    1
    38    21    22    1
    39    21    23    1
    40    21    24    1
    41    25    26    1
    42    25    40    1
@<TRIPOS>SUBSTRUCTURE
     1 ZINC000432253027        1 TEMP              0 ****  ****    0 ROOT


##########                                Name:    ZINC000600609084
##########                DOCK_Rotatable_Bonds:                   8
##########                         Heavy_Atoms:                  30
##########                    Molecular_Weight:             422.548
##########                DOCK_Rotatable_Bonds:                   8
##########                       Formal_Charge:           0.0100005
##########                     HBond_Acceptors:                   6
##########                        HBond_Donors:                   2
##########                         Heavy_Atoms:                  30
##########                          Grid_Score:          -34.016998
##########                     Grid_vdw_energy:          -33.301071
##########                      Grid_es_energy:           -0.715928
##########           Internal_energy_repulsive:           21.924654

@<TRIPOS>MOLECULE
ZINC000600609084
 56 59 1 0 0
SMALL
USER_CHARGES


@<TRIPOS>ATOM
      1 O1         -7.3526   -0.2449   51.9754 O.2     1  ZINC000600609084   -0.5300
      2 C2         -7.2164    0.6546   51.1734 C.2     1  ZINC000600609084    0.5200
      3 C3         -6.4549    0.4154   49.8951 C.3     1  ZINC000600609084   -0.1500
      4 C4         -4.9545    0.5489   50.1624 C.3     1  ZINC000600609084    0.1300
      5 N5         -4.7077    1.7415   50.9765 N.am    1  ZINC000600609084   -1.1200
      6 S6         -4.1459    3.1277   50.2657 S.o2    1  ZINC000600609084    2.7000
      7 O7         -5.0401    3.4239   49.2018 O.2     1  ZINC000600609084   -0.9600
      8 O8         -3.8673    4.0360   51.3225 O.2     1  ZINC000600609084   -0.9500
      9 C9         -2.5968    2.7410   49.5206 C.ar    1  ZINC000600609084   -0.6700
     10 C10        -2.5543    2.3708   48.1781 C.ar    1  ZINC000600609084   -0.0400
     11 C11        -1.3742    2.0657   47.5721 C.ar    1  ZINC000600609084   -0.1200
     12 C12        -0.1790    2.1242   48.3086 C.ar    1  ZINC000600609084   -0.0100
     13 C13         1.0585    1.8171   47.7175 C.ar    1  ZINC000600609084   -0.1200
     14 C14         2.1956    1.8849   48.4619 C.ar    1  ZINC000600609084   -0.0900
     15 C15         2.1532    2.2553   49.8050 C.ar    1  ZINC000600609084   -0.1200
     16 C16         0.9733    2.5597   50.4110 C.ar    1  ZINC000600609084   -0.0900
     17 C17        -0.2223    2.5009   49.6744 C.ar    1  ZINC000600609084   -0.0800
     18 C18        -1.4586    2.8139   50.2639 C.ar    1  ZINC000600609084    0.0200
     19 N19        -7.7507    1.8666   51.4228 N.am    1  ZINC000600609084   -0.7200
     20 C20        -8.4908    2.0991   52.6655 C.3     1  ZINC000600609084    0.1400
     21 H21        -9.1447    1.2525   52.8743 H       1  ZINC000600609084    0.1000
     22 C22        -7.5095    2.3074   53.8324 C.3     1  ZINC000600609084   -0.1300
     23 C23        -7.7779    3.7218   54.3867 C.3     1  ZINC000600609084   -0.1300
     24 C24        -8.4252    4.4783   53.2003 C.3     1  ZINC000600609084   -0.1200
     25 C25        -9.3222    3.3934   52.5511 C.3     1  ZINC000600609084   -0.0700
     26 H26       -10.2593    3.2953   53.0992 H       1  ZINC000600609084    0.0900
     27 C27        -9.5902    3.7261   51.1059 C.ar    1  ZINC000600609084   -0.0600
     28 C28        -8.5563    4.1457   50.2900 C.ar    1  ZINC000600609084   -0.1100
     29 C29        -8.8021    4.4510   48.9644 C.ar    1  ZINC000600609084   -0.1200
     30 C30       -10.0820    4.3362   48.4547 C.ar    1  ZINC000600609084   -0.1200
     31 C31       -11.1158    3.9159   49.2704 C.ar    1  ZINC000600609084   -0.1200
     32 C32       -10.8691    3.6065   50.5949 C.ar    1  ZINC000600609084   -0.1100
     33 H33        -6.6705   -0.5873   49.5261 H       1  ZINC000600609084    0.1000
     34 H34        -6.7579    1.1500   49.1489 H       1  ZINC000600609084    0.1000
     35 H35        -4.6002   -0.3340   50.6946 H       1  ZINC000600609084    0.0900
     36 H36        -4.4232    0.6394   49.2149 H       1  ZINC000600609084    0.0800
     37 H37        -4.8733    1.7193   51.9321 H       1  ZINC000600609084    0.4200
     38 H38        -3.4715    2.3247   47.6098 H       1  ZINC000600609084    0.1400
     39 H39        -1.3566    1.7800   46.5307 H       1  ZINC000600609084    0.1400
     40 H40         1.1068    1.5282   46.6779 H       1  ZINC000600609084    0.1300
     41 H41         3.1452    1.6480   48.0054 H       1  ZINC000600609084    0.1300
     42 H42         3.0704    2.3009   50.3734 H       1  ZINC000600609084    0.1300
     43 H43         0.9556    2.8446   51.4526 H       1  ZINC000600609084    0.1300
     44 H44        -1.5062    3.1071   51.3022 H       1  ZINC000600609084    0.1500
     45 H45        -7.6451    2.5848   50.7795 H       1  ZINC000600609084    0.4000
     46 H46        -7.6878    1.5624   54.6077 H       1  ZINC000600609084    0.0800
     47 H47        -6.4826    2.2355   53.4740 H       1  ZINC000600609084    0.0700
     48 H48        -8.4658    3.6764   55.2310 H       1  ZINC000600609084    0.0700
     49 H49        -6.8434    4.2002   54.6800 H       1  ZINC000600609084    0.0700
     50 H50        -9.0270    5.3141   53.5572 H       1  ZINC000600609084    0.0700
     51 H51        -7.6641    4.8206   52.4991 H       1  ZINC000600609084    0.0700
     52 H52        -7.5565    4.2352   50.6883 H       1  ZINC000600609084    0.1200
     53 H53        -7.9945    4.7794   48.3272 H       1  ZINC000600609084    0.1200
     54 H54       -10.2742    4.5755   47.4192 H       1  ZINC000600609084    0.1200
     55 H55       -12.1157    3.8267   48.8722 H       1  ZINC000600609084    0.1200
     56 H56       -11.6768    3.2781   51.2322 H       1  ZINC000600609084    0.1200
@<TRIPOS>BOND
     1     1     2    2
     2     2     3    1
     3     2    19   am
     4     3     4    1
     5     3    33    1
     6     3    34    1
     7     4     5    1
     8     4    35    1
     9     4    36    1
    10     5     6   am
    11     5    37    1
    12     6     7    2
    13     6     8    2
    14     6     9    1
    15     9    18   ar
    16     9    10   ar
    17    10    11   ar
    18    10    38    1
    19    11    12   ar
    20    11    39    1
    21    12    17   ar
    22    12    13   ar
    23    13    14   ar
    24    13    40    1
    25    14    15   ar
    26    14    41    1
    27    15    16   ar
    28    15    42    1
    29    16    17   ar
    30    16    43    1
    31    17    18   ar
    32    18    44    1
    33    19    20    1
    34    19    45    1
    35    20    21    1
    36    20    25    1
    37    20    22    1
    38    22    23    1
    39    22    46    1
    40    22    47    1
    41    23    24    1
    42    23    48    1
    43    23    49    1
    44    24    25    1
    45    24    50    1
    46    24    51    1
    47    25    26    1
    48    25    27    1
    49    27    32   ar
    50    27    28   ar
    51    28    29   ar
    52    28    52    1
    53    29    30   ar
    54    29    53    1
    55    30    31   ar
    56    30    54    1
    57    31    32   ar
    58    31    55    1
    59    32    56    1
@<TRIPOS>SUBSTRUCTURE
     1 ZINC000600609084        1 TEMP              0 ****  ****    0 ROOT


##########                                Name:    ZINC001347442583
##########                DOCK_Rotatable_Bonds:                   9
##########                         Heavy_Atoms:                  27
##########                    Molecular_Weight:             370.492
##########                DOCK_Rotatable_Bonds:                   9
##########                       Formal_Charge:          -0.0400009
##########                     HBond_Acceptors:                   5
##########                        HBond_Donors:                   1
##########                         Heavy_Atoms:                  27
##########                          Grid_Score:          -34.008991
##########                     Grid_vdw_energy:          -32.281921
##########                      Grid_es_energy:           -1.727069
##########           Internal_energy_repulsive:           11.491761

@<TRIPOS>MOLECULE
ZINC001347442583
 57 60 1 0 0
SMALL
USER_CHARGES


@<TRIPOS>ATOM
      1 O1         -3.8255    1.5281   48.5803 O.2     1  ZINC001347442583   -0.5400
      2 C2         -4.0369    1.5601   49.7741 C.2     1  ZINC001347442583    0.5400
      3 C3         -4.7854    0.4327   50.4372 C.3     1  ZINC001347442583   -0.1400
      4 C4         -6.2734    0.5389   50.0972 C.3     1  ZINC001347442583   -0.1000
      5 C5         -7.1047    0.0871   51.2996 C.3     1  ZINC001347442583   -0.1100
      6 C6         -7.6351    1.3147   52.0430 C.3     1  ZINC001347442583   -0.0800
      7 C7         -8.3568    0.8736   53.2903 C.ar    1  ZINC001347442583   -0.0800
      8 C8         -7.8919    1.2637   54.5324 C.ar    1  ZINC001347442583   -0.1200
      9 C9         -8.5539    0.8590   55.6764 C.ar    1  ZINC001347442583   -0.1200
     10 C10        -9.6810    0.0646   55.5785 C.ar    1  ZINC001347442583   -0.1300
     11 C11       -10.1464   -0.3246   54.3364 C.ar    1  ZINC001347442583   -0.1200
     12 C12        -9.4869    0.0837   53.1921 C.ar    1  ZINC001347442583   -0.1200
     13 N13        -3.5975    2.6012   50.5087 N.am    1  ZINC001347442583   -0.6300
     14 C14        -3.7156    2.8853   51.9792 C.3     1  ZINC001347442583    0.1200
     15 H15        -4.2474    2.1370   52.5667 H       1  ZINC001347442583    0.1200
     16 C16        -4.3580    4.3050   51.9585 C.3     1  ZINC001347442583   -0.1300
     17 C17        -3.7608    4.9519   50.6846 C.3     1  ZINC001347442583   -0.1300
     18 C18        -2.8332    3.8317   50.1101 C.3     1  ZINC001347442583    0.1200
     19 H19        -2.5917    3.9184   49.0508 H       1  ZINC001347442583    0.1200
     20 C20        -1.6115    3.7824   51.0764 C.3     1  ZINC001347442583    0.1300
     21 H21        -1.2426    4.7875   51.2807 H       1  ZINC001347442583    0.1100
     22 N22        -0.5455    2.9466   50.5185 N.am    1  ZINC001347442583   -0.7200
     23 C23         0.3731    3.4875   49.6939 C.2     1  ZINC001347442583    0.5300
     24 O24         0.3182    4.6665   49.4150 O.2     1  ZINC001347442583   -0.5300
     25 C25         1.4686    2.6272   49.1185 C.3     1  ZINC001347442583   -0.1500
     26 H26         2.3429    3.2294   48.8713 H       1  ZINC001347442583    0.1100
     27 C27         1.8449    1.4828   50.0986 C.3     1  ZINC001347442583   -0.1400
     28 C28         2.3548    0.4044   49.1096 C.3     1  ZINC001347442583    0.0500
     29 O29         1.5108    0.5266   47.9538 O.3     1  ZINC001347442583   -0.3800
     30 C30         0.9666    1.8533   47.8806 C.3     1  ZINC001347442583    0.0700
     31 C31        -2.2208    3.1031   52.3623 C.3     1  ZINC001347442583   -0.1400
     32 H32        -4.3980   -0.5211   50.0787 H       1  ZINC001347442583    0.0900
     33 H33        -4.6542    0.4952   51.5175 H       1  ZINC001347442583    0.0900
     34 H34        -6.5177    1.5731   49.8545 H       1  ZINC001347442583    0.0700
     35 H35        -6.4968   -0.0977   49.2411 H       1  ZINC001347442583    0.0700
     36 H36        -7.9425   -0.5190   50.9550 H       1  ZINC001347442583    0.0600
     37 H37        -6.4812   -0.5030   51.9713 H       1  ZINC001347442583    0.0600
     38 H38        -6.8021    1.9628   52.3151 H       1  ZINC001347442583    0.0700
     39 H39        -8.3244    1.8601   51.3983 H       1  ZINC001347442583    0.0700
     40 H40        -7.0113    1.8842   54.6089 H       1  ZINC001347442583    0.1200
     41 H41        -8.1902    1.1630   56.6469 H       1  ZINC001347442583    0.1200
     42 H42       -10.1977   -0.2521   56.4724 H       1  ZINC001347442583    0.1200
     43 H43       -11.0268   -0.9454   54.2598 H       1  ZINC001347442583    0.1200
     44 H44        -9.8505   -0.2204   52.2216 H       1  ZINC001347442583    0.1200
     45 H45        -5.4429    4.2345   51.8809 H       1  ZINC001347442583    0.0700
     46 H46        -4.0713    4.8692   52.8460 H       1  ZINC001347442583    0.0800
     47 H47        -4.5496    5.2022   49.9752 H       1  ZINC001347442583    0.0800
     48 H48        -3.1780    5.8367   50.9403 H       1  ZINC001347442583    0.0800
     49 H49        -0.5009    2.0038   50.7426 H       1  ZINC001347442583    0.4000
     50 H50         2.6352    1.7944   50.7816 H       1  ZINC001347442583    0.0900
     51 H51         0.9707    1.1314   50.6465 H       1  ZINC001347442583    0.0900
     52 H52         3.3936    0.5976   48.8418 H       1  ZINC001347442583    0.0700
     53 H53         2.2547   -0.5885   49.5480 H       1  ZINC001347442583    0.0900
     54 H54        -0.1224    1.8075   47.8931 H       1  ZINC001347442583    0.0700
     55 H55         1.3070    2.3428   46.9682 H       1  ZINC001347442583    0.0800
     56 H56        -2.1584    3.7755   53.2180 H       1  ZINC001347442583    0.0900
     57 H57        -1.7151    2.1612   52.5752 H       1  ZINC001347442583    0.0800
@<TRIPOS>BOND
     1     1     2    2
     2     2     3    1
     3     2    13   am
     4     3     4    1
     5     3    32    1
     6     3    33    1
     7     4     5    1
     8     4    34    1
     9     4    35    1
    10     5     6    1
    11     5    36    1
    12     5    37    1
    13     6     7    1
    14     6    38    1
    15     6    39    1
    16     7    12   ar
    17     7     8   ar
    18     8     9   ar
    19     8    40    1
    20     9    10   ar
    21     9    41    1
    22    10    11   ar
    23    10    42    1
    24    11    12   ar
    25    11    43    1
    26    12    44    1
    27    13    18    1
    28    13    14    1
    29    14    15    1
    30    14    31    1
    31    14    16    1
    32    16    17    1
    33    16    45    1
    34    16    46    1
    35    17    18    1
    36    17    47    1
    37    17    48    1
    38    18    19    1
    39    18    20    1
    40    20    21    1
    41    20    22    1
    42    20    31    1
    43    22    23   am
    44    22    49    1
    45    23    24    2
    46    23    25    1
    47    25    26    1
    48    25    30    1
    49    25    27    1
    50    27    28    1
    51    27    50    1
    52    27    51    1
    53    28    29    1
    54    28    52    1
    55    28    53    1
    56    29    30    1
    57    30    54    1
    58    30    55    1
    59    31    56    1
    60    31    57    1
@<TRIPOS>SUBSTRUCTURE
     1 ZINC001347442583        1 TEMP              0 ****  ****    0 ROOT


##########                                Name:    ZINC001090961577
##########                DOCK_Rotatable_Bonds:                   9
##########                         Heavy_Atoms:                  24
##########                    Molecular_Weight:             352.458
##########                DOCK_Rotatable_Bonds:                   9
##########                       Formal_Charge:                0.02
##########                     HBond_Acceptors:                   8
##########                        HBond_Donors:                   1
##########                         Heavy_Atoms:                  24
##########                          Grid_Score:          -33.919128
##########                     Grid_vdw_energy:          -32.484047
##########                      Grid_es_energy:           -1.435083
##########           Internal_energy_repulsive:            8.713547

@<TRIPOS>MOLECULE
ZINC001090961577
 48 49 1 0 0
SMALL
USER_CHARGES


@<TRIPOS>ATOM
      1 C1          1.2815    1.9032   51.1706 C.3     1  ZINC001090961577   -0.1400
      2 C2          1.2236    2.5378   49.7796 C.3     1  ZINC001090961577   -0.0900
      3 S3         -0.4465    2.3482   49.0975 S.3     1  ZINC001090961577   -0.2700
      4 C4         -1.4820    3.2196   50.3054 C.3     1  ZINC001090961577   -0.0700
      5 C5         -2.7592    3.7116   49.6216 C.3     1  ZINC001090961577   -0.1200
      6 C6         -3.6514    2.5357   49.3181 C.2     1  ZINC001090961577    0.5400
      7 O7         -3.4247    1.8353   48.3542 O.2     1  ZINC001090961577   -0.5300
      8 N8         -4.7014    2.2624   50.1177 N.am    1  ZINC001090961577   -0.6200
      9 C9         -5.6484    1.1520   49.9389 C.3     1  ZINC001090961577    0.1100
     10 C10        -6.6589    1.2198   51.1034 C.3     1  ZINC001090961577   -0.1100
     11 H11        -7.5623    1.7488   50.7997 H       1  ZINC001090961577    0.0900
     12 C12        -6.9997   -0.1843   51.6068 C.3     1  ZINC001090961577   -0.1400
     13 C13        -5.8895    2.0233   52.1849 C.3     1  ZINC001090961577    0.1500
     14 H14        -5.2196    1.3753   52.7501 H       1  ZINC001090961577    0.1200
     15 N15        -6.8165    2.7226   53.0782 N.pl3   1  ZINC001090961577   -0.6700
     16 C16        -6.9739    2.2957   54.3800 C.ar    1  ZINC001090961577    0.5900
     17 N17        -7.9581    1.4535   54.6670 N.ar    1  ZINC001090961577   -0.5700
     18 C18        -8.1423    1.0213   55.9000 C.ar    1  ZINC001090961577    0.2700
     19 C19        -7.2800    1.4655   56.9117 C.ar    1  ZINC001090961577   -0.3000
     20 C20        -7.4479    1.0088   58.3034 C.2     1  ZINC001090961577    0.5300
     21 O21        -7.4506    1.8160   59.2116 O.2     1  ZINC001090961577   -0.5100
     22 O22        -7.5986   -0.3037   58.5682 O.3     1  ZINC001090961577   -0.3600
     23 C23        -8.0091   -0.6618   59.9142 C.3     1  ZINC001090961577    0.0400
     24 C24        -6.2534    2.3549   56.5657 C.ar    1  ZINC001090961577    0.2600
     25 N25        -6.1334    2.7351   55.3079 N.ar    1  ZINC001090961577   -0.5700
     26 C26        -5.0868    3.0235   51.3200 C.3     1  ZINC001090961577    0.0900
     27 H27         2.2851    2.0171   51.5804 H       1  ZINC001090961577    0.0700
     28 H28         0.5634    2.3969   51.8253 H       1  ZINC001090961577    0.0700
     29 H29         1.0372    0.8435   51.0970 H       1  ZINC001090961577    0.0700
     30 H30         1.4679    3.5975   49.8532 H       1  ZINC001090961577    0.0800
     31 H31         1.9417    2.0440   49.1248 H       1  ZINC001090961577    0.0800
     32 H32        -1.7428    2.5407   51.1173 H       1  ZINC001090961577    0.0900
     33 H33        -0.9333    4.0719   50.7065 H       1  ZINC001090961577    0.0900
     34 H34        -3.2818    4.4032   50.2823 H       1  ZINC001090961577    0.1000
     35 H35        -2.5011    4.2210   48.6931 H       1  ZINC001090961577    0.1000
     36 H36        -6.1705    1.2595   48.9883 H       1  ZINC001090961577    0.0800
     37 H37        -5.1149    0.2019   49.9660 H       1  ZINC001090961577    0.0800
     38 H38        -6.0879   -0.6846   51.9329 H       1  ZINC001090961577    0.0600
     39 H39        -7.6936   -0.1115   52.4443 H       1  ZINC001090961577    0.0600
     40 H40        -7.4604   -0.7569   50.8019 H       1  ZINC001090961577    0.0700
     41 H41        -7.3195    3.4860   52.7538 H       1  ZINC001090961577    0.4200
     42 H42        -8.9459    0.3361   56.1263 H       1  ZINC001090961577    0.1800
     43 H43        -8.0927   -1.7458   59.9922 H       1  ZINC001090961577    0.1100
     44 H44        -7.2679   -0.3022   60.6278 H       1  ZINC001090961577    0.0700
     45 H45        -8.9749   -0.2061   60.1327 H       1  ZINC001090961577    0.0700
     46 H46        -5.5684    2.7201   57.3164 H       1  ZINC001090961577    0.1800
     47 H47        -4.2017    3.3644   51.8572 H       1  ZINC001090961577    0.0900
     48 H48        -5.7125    3.8714   51.0414 H       1  ZINC001090961577    0.0800
@<TRIPOS>BOND
     1     1     2    1
     2     1    27    1
     3     1    28    1
     4     1    29    1
     5     2     3    1
     6     2    30    1
     7     2    31    1
     8     3     4    1
     9     4     5    1
    10     4    32    1
    11     4    33    1
    12     5     6    1
    13     5    34    1
    14     5    35    1
    15     6     7    2
    16     6     8   am
    17     8    26    1
    18     8     9    1
    19     9    10    1
    20     9    36    1
    21     9    37    1
    22    10    11    1
    23    10    12    1
    24    10    13    1
    25    12    38    1
    26    12    39    1
    27    12    40    1
    28    13    14    1
    29    13    15    1
    30    13    26    1
    31    15    16    1
    32    15    41    1
    33    16    25   ar
    34    16    17   ar
    35    17    18   ar
    36    18    19   ar
    37    18    42    1
    38    19    20    1
    39    19    24   ar
    40    20    21    2
    41    20    22    1
    42    22    23    1
    43    23    43    1
    44    23    44    1
    45    23    45    1
    46    24    25   ar
    47    24    46    1
    48    26    47    1
    49    26    48    1
@<TRIPOS>SUBSTRUCTURE
     1 ZINC001090961577        1 TEMP              0 ****  ****    0 ROOT


##########                                Name:    ZINC000182044395
##########                DOCK_Rotatable_Bonds:                   8
##########                         Heavy_Atoms:                  28
##########                    Molecular_Weight:             398.889
##########                DOCK_Rotatable_Bonds:                   8
##########                       Formal_Charge:          -0.0399999
##########                     HBond_Acceptors:                   6
##########                        HBond_Donors:                   2
##########                         Heavy_Atoms:                  28
##########                          Grid_Score:          -33.904194
##########                     Grid_vdw_energy:          -30.638073
##########                      Grid_es_energy:           -3.266120
##########           Internal_energy_repulsive:           16.719515

@<TRIPOS>MOLECULE
ZINC000182044395
 51 53 1 0 0
SMALL
USER_CHARGES


@<TRIPOS>ATOM
      1 C1         -1.1598    5.1813   52.8520 C.3     1  ZINC000182044395   -0.1800
      2 C2         -1.2261    3.6540   52.9133 C.3     1  ZINC000182044395    0.0800
      3 N3         -1.8788    3.1445   51.7047 N.pl3   1  ZINC000182044395   -0.4800
      4 C4         -3.1746    2.8115   51.7679 C.2     1  ZINC000182044395    0.2500
      5 C5         -3.8627    2.3246   50.6758 C.2     1  ZINC000182044395   -0.3500
      6 C6         -5.2865    1.9705   50.7862 C.2     1  ZINC000182044395    0.5900
      7 O7         -6.0438    2.2003   49.8624 O.2     1  ZINC000182044395   -0.5600
      8 N8         -5.7517    1.3916   51.9109 N.am    1  ZINC000182044395   -0.7200
      9 C9         -7.1694    1.0390   52.0207 C.3     1  ZINC000182044395    0.1100
     10 H10        -7.7647    1.7412   51.4372 H       1  ZINC000182044395    0.0900
     11 C11        -7.3851   -0.3788   51.4875 C.3     1  ZINC000182044395   -0.1600
     12 C12        -7.5985    1.1029   53.4880 C.3     1  ZINC000182044395    0.1100
     13 H13        -7.4686    0.1230   53.9474 H       1  ZINC000182044395    0.1100
     14 O14        -6.7954    2.0626   54.1778 O.3     1  ZINC000182044395   -0.5500
     15 C15        -9.0697    1.5144   53.5717 C.3     1  ZINC000182044395   -0.1100
     16 C16        -9.7730    0.6597   54.5944 C.ar    1  ZINC000182044395   -0.0800
     17 C17        -9.2159    0.4814   55.8469 C.ar    1  ZINC000182044395   -0.1000
     18 C18        -9.8608   -0.3029   56.7849 C.ar    1  ZINC000182044395   -0.1200
     19 C19       -11.0631   -0.9082   56.4707 C.ar    1  ZINC000182044395   -0.1200
     20 C20       -11.6179   -0.7339   55.2166 C.ar    1  ZINC000182044395   -0.1200
     21 C21       -10.9749    0.0537   54.2799 C.ar    1  ZINC000182044395   -0.1200
     22 C22        -3.1476    2.1595   49.4005 C.2     1  ZINC000182044395    0.4400
     23 O23        -3.7093    1.7285   48.4087 O.2     1  ZINC000182044395   -0.4900
     24 C24        -1.7237    2.5429   49.3720 C.ar    1  ZINC000182044395   -0.1800
     25 C25        -0.9683    2.4256   48.2057 C.ar    1  ZINC000182044395   -0.0200
     26 C26         0.3619    2.7873   48.2168 C.ar    1  ZINC000182044395   -0.0700
     27 Cl27        1.3091    2.6436   46.7690 Cl      1  ZINC000182044395   -0.0500
     28 C28         0.9472    3.2667   49.3811 C.ar    1  ZINC000182044395   -0.0500
     29 C29         0.2118    3.3880   50.5398 C.ar    1  ZINC000182044395   -0.1600
     30 C30        -1.1332    3.0280   50.5514 C.ar    1  ZINC000182044395    0.1900
     31 H31        -2.1696    5.5865   52.7861 H       1  ZINC000182044395    0.0700
     32 H32        -0.6741    5.5604   53.7512 H       1  ZINC000182044395    0.0800
     33 H33        -0.5885    5.4852   51.9749 H       1  ZINC000182044395    0.0700
     34 H34        -1.7974    3.3501   53.7905 H       1  ZINC000182044395    0.1000
     35 H35        -0.2163    3.2488   52.9791 H       1  ZINC000182044395    0.1100
     36 H36        -3.6985    2.9283   52.7051 H       1  ZINC000182044395    0.1800
     37 H37        -5.1478    1.2083   52.6475 H       1  ZINC000182044395    0.4100
     38 H38        -7.0794   -0.4242   50.4423 H       1  ZINC000182044395    0.0600
     39 H39        -6.7899   -1.0810   52.0712 H       1  ZINC000182044395    0.0600
     40 H40        -8.4400   -0.6411   51.5693 H       1  ZINC000182044395    0.0600
     41 H41        -5.8552    1.8387   54.2096 H       1  ZINC000182044395    0.3700
     42 H42        -9.5411    1.3782   52.5983 H       1  ZINC000182044395    0.0800
     43 H43        -9.1378    2.5620   53.8649 H       1  ZINC000182044395    0.0800
     44 H44        -8.2767    0.9547   56.0925 H       1  ZINC000182044395    0.1200
     45 H45        -9.4253   -0.4425   57.7633 H       1  ZINC000182044395    0.1200
     46 H46       -11.5670   -1.5210   57.2036 H       1  ZINC000182044395    0.1200
     47 H47       -12.5550   -1.2104   54.9696 H       1  ZINC000182044395    0.1200
     48 H48       -11.4100    0.1927   53.3012 H       1  ZINC000182044395    0.1200
     49 H49        -1.4226    2.0535   47.2993 H       1  ZINC000182044395    0.1500
     50 H50         1.9899    3.5479   49.3783 H       1  ZINC000182044395    0.1500
     51 H51         0.6784    3.7624   51.4389 H       1  ZINC000182044395    0.1500
@<TRIPOS>BOND
     1     1     2    1
     2     1    31    1
     3     1    32    1
     4     1    33    1
     5     2     3    1
     6     2    34    1
     7     2    35    1
     8     3    30    1
     9     3     4    1
    10     4     5    2
    11     4    36    1
    12     5     6    1
    13     5    22    1
    14     6     7    2
    15     6     8   am
    16     8     9    1
    17     8    37    1
    18     9    10    1
    19     9    11    1
    20     9    12    1
    21    11    38    1
    22    11    39    1
    23    11    40    1
    24    12    13    1
    25    12    14    1
    26    12    15    1
    27    14    41    1
    28    15    16    1
    29    15    42    1
    30    15    43    1
    31    16    21   ar
    32    16    17   ar
    33    17    18   ar
    34    17    44    1
    35    18    19   ar
    36    18    45    1
    37    19    20   ar
    38    19    46    1
    39    20    21   ar
    40    20    47    1
    41    21    48    1
    42    22    23    2
    43    22    24    1
    44    24    30   ar
    45    24    25   ar
    46    25    26   ar
    47    25    49    1
    48    26    27    1
    49    26    28   ar
    50    28    29   ar
    51    28    50    1
    52    29    30   ar
    53    29    51    1
@<TRIPOS>SUBSTRUCTURE
     1 ZINC000182044395        1 TEMP              0 ****  ****    0 ROOT


##########                                Name:    ZINC000918875053
##########                DOCK_Rotatable_Bonds:                   6
##########                         Heavy_Atoms:                  26
##########                    Molecular_Weight:             359.357
##########                DOCK_Rotatable_Bonds:                   6
##########                       Formal_Charge:           0.0200003
##########                     HBond_Acceptors:                   8
##########                        HBond_Donors:                   0
##########                         Heavy_Atoms:                  26
##########                          Grid_Score:          -33.896141
##########                     Grid_vdw_energy:          -34.237446
##########                      Grid_es_energy:            0.341303
##########           Internal_energy_repulsive:            7.101399

@<TRIPOS>MOLECULE
ZINC000918875053
 44 47 1 0 0
SMALL
USER_CHARGES


@<TRIPOS>ATOM
      1 C1         -8.3625   -0.9524   59.4526 C.3     1  ZINC000918875053   -0.1700
      2 C2         -9.4764   -0.4568   60.3771 C.3     1  ZINC000918875053    0.1900
      3 H3         -9.8297    0.5149   60.0318 H       1  ZINC000918875053    0.1400
      4 O4        -10.5759   -1.4051   60.3618 O.3     1  ZINC000918875053   -0.3400
      5 C5        -11.3878   -1.3794   59.2932 C.2     1  ZINC000918875053    0.4800
      6 O6        -11.4543   -0.3860   58.6087 O.2     1  ZINC000918875053   -0.4900
      7 C7        -12.2166   -2.5896   58.9474 C.3     1  ZINC000918875053   -0.0900
      8 H8        -11.7116   -3.5060   59.2529 H       1  ZINC000918875053    0.1400
      9 C9        -13.6241   -2.4959   59.5809 C.3     1  ZINC000918875053   -0.1400
     10 C10       -14.5410   -3.0955   58.5378 C.2     1  ZINC000918875053    0.5300
     11 O11       -15.6775   -3.4666   58.7427 O.2     1  ZINC000918875053   -0.5000
     12 N12       -13.9134   -3.1570   57.3508 N.am    1  ZINC000918875053   -0.5800
     13 C13       -14.4856   -3.6695   56.1799 C.ar    1  ZINC000918875053    0.1000
     14 C14       -14.3802   -5.0223   55.8887 C.ar    1  ZINC000918875053   -0.0800
     15 C15       -14.9462   -5.5254   54.7329 C.ar    1  ZINC000918875053   -0.1200
     16 C16       -15.6171   -4.6835   53.8657 C.ar    1  ZINC000918875053   -0.0800
     17 C17       -15.7250   -3.3345   54.1514 C.ar    1  ZINC000918875053   -0.1500
     18 C18       -15.1661   -2.8251   55.3090 C.ar    1  ZINC000918875053    0.1100
     19 F19       -15.2717   -1.5076   55.5885 F       1  ZINC000918875053   -0.1300
     20 C20       -12.5502   -2.6186   57.4394 C.3     1  ZINC000918875053    0.1200
     21 C21        -8.9438   -0.3278   61.7809 C.2     1  ZINC000918875053    0.1800
     22 N22        -9.6286   -0.4602   62.8913 N.2     1  ZINC000918875053   -0.4600
     23 C23        -8.7463   -0.2618   63.8868 C.2     1  ZINC000918875053    0.2100
     24 C24        -9.0427   -0.3081   65.3636 C.3     1  ZINC000918875053   -0.0900
     25 C25        -8.0913    0.4409   66.2989 C.3     1  ZINC000918875053   -0.1600
     26 C26        -9.4945    0.9906   66.0345 C.3     1  ZINC000918875053   -0.1500
     27 N27        -7.5913   -0.0233   63.3412 N.2     1  ZINC000918875053   -0.3700
     28 O28        -7.6820   -0.0624   62.1322 O.3     1  ZINC000918875053    0.1000
     29 H29        -8.7477   -1.0457   58.4372 H       1  ZINC000918875053    0.0900
     30 H30        -7.5372   -0.2406   59.4642 H       1  ZINC000918875053    0.0900
     31 H31        -8.0092   -1.9240   59.7979 H       1  ZINC000918875053    0.0800
     32 H32       -13.6663   -3.0742   60.5038 H       1  ZINC000918875053    0.1300
     33 H33       -13.8892   -1.4554   59.7691 H       1  ZINC000918875053    0.1100
     34 H34       -13.8557   -5.6813   56.5648 H       1  ZINC000918875053    0.1400
     35 H35       -14.8640   -6.5783   54.5065 H       1  ZINC000918875053    0.1400
     36 H36       -16.0577   -5.0799   52.9630 H       1  ZINC000918875053    0.1400
     37 H37       -16.2498   -2.6793   53.4720 H       1  ZINC000918875053    0.1400
     38 H38       -12.5153   -1.6105   57.0264 H       1  ZINC000918875053    0.1000
     39 H39       -11.8531   -3.2681   56.9102 H       1  ZINC000918875053    0.1000
     40 H40        -9.4764   -1.2397   65.7271 H       1  ZINC000918875053    0.1400
     41 H41        -7.8988    0.0021   67.2779 H       1  ZINC000918875053    0.1100
     42 H42        -7.2511    0.9672   65.8460 H       1  ZINC000918875053    0.1000
     43 H43        -9.5774    1.8784   65.4077 H       1  ZINC000918875053    0.1000
     44 H44       -10.2251    0.9133   66.8397 H       1  ZINC000918875053    0.1100
@<TRIPOS>BOND
     1     1     2    1
     2     1    29    1
     3     1    30    1
     4     1    31    1
     5     2     3    1
     6     2     4    1
     7     2    21    1
     8     4     5    1
     9     5     6    2
    10     5     7    1
    11     7     8    1
    12     7    20    1
    13     7     9    1
    14     9    10    1
    15     9    32    1
    16     9    33    1
    17    10    11    2
    18    10    12   am
    19    12    13    1
    20    12    20    1
    21    13    18   ar
    22    13    14   ar
    23    14    15   ar
    24    14    34    1
    25    15    16   ar
    26    15    35    1
    27    16    17   ar
    28    16    36    1
    29    17    18   ar
    30    17    37    1
    31    18    19    1
    32    20    38    1
    33    20    39    1
    34    21    28    1
    35    21    22    2
    36    22    23    1
    37    23    24    1
    38    23    27    2
    39    24    26    1
    40    24    25    1
    41    24    40    1
    42    25    26    1
    43    25    41    1
    44    25    42    1
    45    26    43    1
    46    26    44    1
    47    27    28    1
@<TRIPOS>SUBSTRUCTURE
     1 ZINC000918875053        1 TEMP              0 ****  ****    0 ROOT


##########                                Name:    ZINC000465392830
##########                DOCK_Rotatable_Bonds:                   8
##########                         Heavy_Atoms:                  29
##########                    Molecular_Weight:             419.588
##########                DOCK_Rotatable_Bonds:                   8
##########                       Formal_Charge:           0.0199996
##########                     HBond_Acceptors:                   7
##########                        HBond_Donors:                   0
##########                         Heavy_Atoms:                  29
##########                          Grid_Score:          -33.884315
##########                     Grid_vdw_energy:          -32.456512
##########                      Grid_es_energy:           -1.427803
##########           Internal_energy_repulsive:           26.267942

@<TRIPOS>MOLECULE
ZINC000465392830
 62 64 1 0 0
SMALL
USER_CHARGES


@<TRIPOS>ATOM
      1 C1         -5.0353    3.5181   56.2994 C.3     1  ZINC000465392830    0.0400
      2 O2         -6.0664    4.1947   55.5330 O.3     1  ZINC000465392830   -0.3600
      3 C3         -7.3294    3.7748   55.7069 C.2     1  ZINC000465392830    0.4600
      4 O4         -8.2348    4.5747   55.7253 O.2     1  ZINC000465392830   -0.4900
      5 C5         -7.6180    2.3058   55.8792 C.3     1  ZINC000465392830    0.1500
      6 H6         -6.7988    1.7164   55.4673 H       1  ZINC000465392830    0.1100
      7 C7         -7.7990    1.9786   57.3764 C.3     1  ZINC000465392830   -0.1100
      8 C8         -8.9511    0.9394   57.3682 C.3     1  ZINC000465392830   -0.0900
      9 H9         -8.5738   -0.0605   57.1533 H       1  ZINC000465392830    0.1000
     10 C10        -9.7179    0.9602   58.6920 C.3     1  ZINC000465392830   -0.0800
     11 C11       -10.9152    0.0119   58.6029 C.3     1  ZINC000465392830   -0.1200
     12 C12       -11.6820    0.0327   59.9266 C.3     1  ZINC000465392830   -0.1200
     13 C13       -10.7571   -0.4186   61.0589 C.3     1  ZINC000465392830   -0.1200
     14 C14        -9.5599    0.5297   61.1480 C.3     1  ZINC000465392830   -0.1200
     15 C15        -8.7931    0.5089   59.8242 C.3     1  ZINC000465392830   -0.1200
     16 C16        -9.8329    1.4617   56.2066 C.3     1  ZINC000465392830    0.1000
     17 N17        -8.8745    1.9599   55.1985 N.am    1  ZINC000465392830   -0.6100
     18 C18        -9.1149    2.0798   53.8778 C.2     1  ZINC000465392830    0.5400
     19 O19       -10.1948    1.7617   53.4267 O.2     1  ZINC000465392830   -0.5300
     20 C20        -8.0418    2.6091   52.9617 C.3     1  ZINC000465392830   -0.1300
     21 C21        -8.3511    2.1954   51.5214 C.3     1  ZINC000465392830   -0.0600
     22 C22        -7.0676    2.1121   50.7361 C.ar    1  ZINC000465392830   -0.2000
     23 C23        -6.3068    0.9533   50.7438 C.ar    1  ZINC000465392830    0.2000
     24 C24        -6.7525   -0.2463   51.5397 C.3     1  ZINC000465392830   -0.1100
     25 N25        -5.1853    0.9130   50.0439 N.ar    1  ZINC000465392830   -0.5000
     26 C26        -4.7872    1.9641   49.3411 C.ar    1  ZINC000465392830    0.3000
     27 S27        -3.2865    1.8667   48.4229 S.3     1  ZINC000465392830    0.0000
     28 C28        -2.3472    3.1963   49.2140 C.3     1  ZINC000465392830   -0.1400
     29 N29        -5.4918    3.0865   49.3123 N.ar    1  ZINC000465392830   -0.5300
     30 C30        -6.6252    3.1906   49.9860 C.ar    1  ZINC000465392830    0.2000
     31 C31        -7.4201    4.4703   49.9480 C.3     1  ZINC000465392830   -0.1100
     32 H32        -5.2386    3.6343   57.3639 H       1  ZINC000465392830    0.0600
     33 H33        -5.0294    2.4583   56.0442 H       1  ZINC000465392830    0.0600
     34 H34        -4.0639    3.9536   56.0654 H       1  ZINC000465392830    0.1000
     35 H35        -6.8890    1.5423   57.7885 H       1  ZINC000465392830    0.1000
     36 H36        -8.0874    2.8697   57.9338 H       1  ZINC000465392830    0.0800
     37 H37       -10.0700    1.9722   58.8921 H       1  ZINC000465392830    0.0800
     38 H38       -11.5740    0.3333   57.7963 H       1  ZINC000465392830    0.0600
     39 H39       -10.5631   -1.0001   58.4029 H       1  ZINC000465392830    0.0700
     40 H40       -12.0342    1.0447   60.1267 H       1  ZINC000465392830    0.0600
     41 H41       -12.5350   -0.6430   59.8632 H       1  ZINC000465392830    0.0600
     42 H42       -11.3034   -0.4037   62.0020 H       1  ZINC000465392830    0.0600
     43 H43       -10.4051   -1.4306   60.8589 H       1  ZINC000465392830    0.0600
     44 H44        -9.9119    1.5417   61.3481 H       1  ZINC000465392830    0.0600
     45 H45        -8.9009    0.2082   61.9547 H       1  ZINC000465392830    0.0600
     46 H46        -8.4409   -0.5031   59.6242 H       1  ZINC000465392830    0.0700
     47 H47        -7.9400    1.1845   59.8878 H       1  ZINC000465392830    0.0600
     48 H48       -10.4316    0.6514   55.7908 H       1  ZINC000465392830    0.0900
     49 H49       -10.4760    2.2708   56.5527 H       1  ZINC000465392830    0.0800
     50 H50        -8.0110    3.6967   53.0286 H       1  ZINC000465392830    0.1000
     51 H51        -7.0763    2.1993   53.2580 H       1  ZINC000465392830    0.1000
     52 H52        -8.8415    1.2220   51.5204 H       1  ZINC000465392830    0.0900
     53 H53        -9.0093    2.9344   51.0645 H       1  ZINC000465392830    0.0900
     54 H54        -7.3806   -0.8828   50.9165 H       1  ZINC000465392830    0.0900
     55 H55        -5.8788   -0.8088   51.8690 H       1  ZINC000465392830    0.0900
     56 H56        -7.3202    0.0850   52.4091 H       1  ZINC000465392830    0.0900
     57 H57        -2.8801    4.1395   49.0928 H       1  ZINC000465392830    0.0900
     58 H58        -2.2319    2.9780   50.2756 H       1  ZINC000465392830    0.0900
     59 H59        -1.3639    3.2724   48.7497 H       1  ZINC000465392830    0.1100
     60 H60        -8.1295    4.4329   49.1212 H       1  ZINC000465392830    0.0900
     61 H61        -7.9618    4.5895   50.8863 H       1  ZINC000465392830    0.0900
     62 H62        -6.7442    5.3140   49.8089 H       1  ZINC000465392830    0.0800
@<TRIPOS>BOND
     1     1     2    1
     2     1    32    1
     3     1    33    1
     4     1    34    1
     5     2     3    1
     6     3     4    2
     7     3     5    1
     8     5     6    1
     9     5    17    1
    10     5     7    1
    11     7     8    1
    12     7    35    1
    13     7    36    1
    14     8     9    1
    15     8    10    1
    16     8    16    1
    17    10    15    1
    18    10    11    1
    19    10    37    1
    20    11    12    1
    21    11    38    1
    22    11    39    1
    23    12    13    1
    24    12    40    1
    25    12    41    1
    26    13    14    1
    27    13    42    1
    28    13    43    1
    29    14    15    1
    30    14    44    1
    31    14    45    1
    32    15    46    1
    33    15    47    1
    34    16    17    1
    35    16    48    1
    36    16    49    1
    37    17    18   am
    38    18    19    2
    39    18    20    1
    40    20    21    1
    41    20    50    1
    42    20    51    1
    43    21    22    1
    44    21    52    1
    45    21    53    1
    46    22    30   ar
    47    22    23   ar
    48    23    24    1
    49    23    25   ar
    50    24    54    1
    51    24    55    1
    52    24    56    1
    53    25    26   ar
    54    26    27    1
    55    26    29   ar
    56    27    28    1
    57    28    57    1
    58    28    58    1
    59    28    59    1
    60    29    30   ar
    61    30    31    1
    62    31    60    1
    63    31    61    1
    64    31    62    1
@<TRIPOS>SUBSTRUCTURE
     1 ZINC000465392830        1 TEMP              0 ****  ****    0 ROOT


##########                                Name:    ZINC000440379747
##########                DOCK_Rotatable_Bonds:                   8
##########                         Heavy_Atoms:                  27
##########                    Molecular_Weight:             394.452
##########                DOCK_Rotatable_Bonds:                   8
##########                       Formal_Charge:           0.0199995
##########                     HBond_Acceptors:                  10
##########                        HBond_Donors:                   3
##########                         Heavy_Atoms:                  27
##########                          Grid_Score:          -33.861977
##########                     Grid_vdw_energy:          -32.902706
##########                      Grid_es_energy:           -0.959269
##########           Internal_energy_repulsive:           17.151093

@<TRIPOS>MOLECULE
ZINC000440379747
 49 51 1 0 0
SMALL
USER_CHARGES


@<TRIPOS>ATOM
      1 C1         -4.1570    1.5264   49.4791 C.3     1  ZINC000440379747   -0.1800
      2 C2         -5.3968    0.9209   50.0851 C.2     1  ZINC000440379747    0.5200
      3 O3         -5.8685   -0.0930   49.6151 O.2     1  ZINC000440379747   -0.5200
      4 N4         -5.9815    1.5059   51.1492 N.am    1  ZINC000440379747   -0.5500
      5 C5         -5.5062    2.7285   51.8022 C.3     1  ZINC000440379747    0.1100
      6 C6         -6.4979    2.9855   52.9485 C.3     1  ZINC000440379747   -0.0900
      7 C7         -7.4927    1.8505   52.8539 C.ar    1  ZINC000440379747   -0.1100
      8 C8         -8.6040    1.5565   53.6184 C.ar    1  ZINC000440379747   -0.0700
      9 C9         -9.3727    0.4364   53.3281 C.ar    1  ZINC000440379747    0.1200
     10 N10       -10.4988    0.1374   54.1011 N.am    1  ZINC000440379747   -0.6400
     11 C11       -10.5238   -0.9826   54.8505 C.2     1  ZINC000440379747    0.5100
     12 O12        -9.5687   -1.7317   54.8542 O.2     1  ZINC000440379747   -0.4900
     13 C13       -11.7265   -1.3019   55.6760 C.2     1  ZINC000440379747    0.5200
     14 O14       -12.8120   -1.4204   55.1465 O.2     1  ZINC000440379747   -0.5100
     15 N15       -11.6064   -1.4586   57.0093 N.am    1  ZINC000440379747   -0.5800
     16 C16       -10.3541   -1.3431   57.7786 C.3     1  ZINC000440379747    0.1000
     17 C17       -10.8041   -0.9855   59.2171 C.3     1  ZINC000440379747   -0.1300
     18 C18       -12.0996   -1.8278   59.3568 C.3     1  ZINC000440379747   -0.1600
     19 C19       -12.7036   -1.7668   57.9380 C.3     1  ZINC000440379747    0.1500
     20 H20       -13.4645   -0.9876   57.8923 H       1  ZINC000440379747    0.1000
     21 C21       -13.3217   -3.1190   57.5770 C.3     1  ZINC000440379747   -0.6500
     22 S22       -14.8902   -3.3233   58.4650 S.o2    1  ZINC000440379747    2.6200
     23 N23       -15.5742   -4.6722   57.7905 N.am    1  ZINC000440379747   -1.2500
     24 O24       -14.6535   -3.6895   59.8175 O.2     1  ZINC000440379747   -0.9500
     25 O25       -15.7894   -2.2731   58.1369 O.2     1  ZINC000440379747   -0.9500
     26 C26        -9.0172   -0.3850   52.2656 C.ar    1  ZINC000440379747   -0.1000
     27 C27        -7.9078   -0.0897   51.5039 C.ar    1  ZINC000440379747   -0.1400
     28 C28        -7.1354    1.0382   51.7886 C.ar    1  ZINC000440379747    0.1400
     29 H29        -3.8314    0.9190   48.6347 H       1  ZINC000440379747    0.1000
     30 H30        -4.3768    2.5374   49.1361 H       1  ZINC000440379747    0.1000
     31 H31        -3.3660    1.5609   50.2283 H       1  ZINC000440379747    0.1000
     32 H32        -4.5015    2.5796   52.1978 H       1  ZINC000440379747    0.0900
     33 H33        -5.5170    3.5614   51.0992 H       1  ZINC000440379747    0.0900
     34 H34        -5.9832    2.9608   53.9090 H       1  ZINC000440379747    0.0900
     35 H35        -6.9994    3.9432   52.8095 H       1  ZINC000440379747    0.1000
     36 H36        -8.8759    2.1980   54.4436 H       1  ZINC000440379747    0.1400
     37 H37       -11.2621    0.7359   54.0980 H       1  ZINC000440379747    0.4200
     38 H38        -9.8171   -2.2917   57.7739 H       1  ZINC000440379747    0.0800
     39 H39        -9.7287   -0.5502   57.3685 H       1  ZINC000440379747    0.1000
     40 H40       -10.0568   -1.2940   59.9483 H       1  ZINC000440379747    0.1000
     41 H41       -11.0190    0.0794   59.3060 H       1  ZINC000440379747    0.0800
     42 H42       -11.8638   -2.8547   59.6356 H       1  ZINC000440379747    0.1000
     43 H43       -12.7770   -1.3761   60.0816 H       1  ZINC000440379747    0.1000
     44 H44       -13.5040   -3.1601   56.5032 H       1  ZINC000440379747    0.1500
     45 H45       -12.6371   -3.9185   57.8602 H       1  ZINC000440379747    0.1400
     46 H46       -16.4358   -4.9880   58.1049 H       1  ZINC000440379747    0.4100
     47 H47       -15.1133   -5.1465   57.0809 H       1  ZINC000440379747    0.4200
     48 H48        -9.6116   -1.2571   52.0364 H       1  ZINC000440379747    0.1400
     49 H49        -7.6361   -0.7322   50.6794 H       1  ZINC000440379747    0.1500
@<TRIPOS>BOND
     1     1     2    1
     2     1    29    1
     3     1    30    1
     4     1    31    1
     5     2     3    2
     6     2     4   am
     7     4    28    1
     8     4     5    1
     9     5     6    1
    10     5    32    1
    11     5    33    1
    12     6     7    1
    13     6    34    1
    14     6    35    1
    15     7    28   ar
    16     7     8   ar
    17     8     9   ar
    18     8    36    1
    19     9    10    1
    20     9    26   ar
    21    10    11   am
    22    10    37    1
    23    11    12    2
    24    11    13    1
    25    13    14    2
    26    13    15   am
    27    15    19    1
    28    15    16    1
    29    16    17    1
    30    16    38    1
    31    16    39    1
    32    17    18    1
    33    17    40    1
    34    17    41    1
    35    18    19    1
    36    18    42    1
    37    18    43    1
    38    19    20    1
    39    19    21    1
    40    21    22    1
    41    21    44    1
    42    21    45    1
    43    22    23   am
    44    22    24    2
    45    22    25    2
    46    23    46    1
    47    23    47    1
    48    26    27   ar
    49    26    48    1
    50    27    28   ar
    51    27    49    1
@<TRIPOS>SUBSTRUCTURE
     1 ZINC000440379747        1 TEMP              0 ****  ****    0 ROOT


##########                                Name:    ZINC001023148918
##########                DOCK_Rotatable_Bonds:                   6
##########                         Heavy_Atoms:                  25
##########                    Molecular_Weight:             348.402
##########                DOCK_Rotatable_Bonds:                   6
##########                       Formal_Charge:           0.0199999
##########                     HBond_Acceptors:                   8
##########                        HBond_Donors:                   2
##########                         Heavy_Atoms:                  25
##########                          Grid_Score:          -33.843426
##########                     Grid_vdw_energy:          -32.557270
##########                      Grid_es_energy:           -1.286154
##########           Internal_energy_repulsive:           11.490018

@<TRIPOS>MOLECULE
ZINC001023148918
 49 52 1 0 0
SMALL
USER_CHARGES


@<TRIPOS>ATOM
      1 C1        -14.8457   -4.0616   57.2436 C.3     1  ZINC001023148918   -0.0700
      2 C2        -13.6130   -3.3072   56.8164 C.2     1  ZINC001023148918    0.0200
      3 N3        -12.4034   -3.4791   57.2852 N.2     1  ZINC001023148918   -0.2700
      4 N4        -11.5729   -2.6817   56.7158 N.pl3   1  ZINC001023148918   -0.2500
      5 C5        -10.1384   -2.6102   57.0037 C.3     1  ZINC001023148918    0.0800
      6 C6        -12.2316   -1.9106   55.8006 C.2     1  ZINC001023148918   -0.0400
      7 C7        -11.6472   -0.8735   54.9354 C.2     1  ZINC001023148918    0.6000
      8 O8        -12.3139    0.0880   54.6032 O.2     1  ZINC001023148918   -0.5300
      9 N9        -10.3731   -0.9891   54.5113 N.am    1  ZINC001023148918   -0.7000
     10 C10        -9.7914    0.0434   53.6500 C.3     1  ZINC001023148918    0.1500
     11 H11       -10.5666    0.5590   53.0835 H       1  ZINC001023148918    0.1200
     12 C12        -8.7214   -0.5593   52.7057 C.3     1  ZINC001023148918    0.1000
     13 N13        -7.8303    0.5682   52.3767 N.am    1  ZINC001023148918   -0.6200
     14 C14        -7.0580    0.6637   51.2762 C.2     1  ZINC001023148918    0.5400
     15 O15        -7.0591   -0.2290   50.4552 O.2     1  ZINC001023148918   -0.5200
     16 C16        -6.1933    1.8798   51.0660 C.3     1  ZINC001023148918   -0.1400
     17 H17        -6.5738    2.7261   51.6380 H       1  ZINC001023148918    0.1100
     18 C18        -6.0992    2.2330   49.5597 C.3     1  ZINC001023148918   -0.1400
     19 C19        -4.5761    2.0860   49.2654 C.3     1  ZINC001023148918    0.0600
     20 H20        -4.3159    1.9216   48.2197 H       1  ZINC001023148918    0.1300
     21 C21        -3.9060    3.3236   49.9341 C.3     1  ZINC001023148918   -0.1500
     22 C22        -3.9974    2.9888   51.4448 C.3     1  ZINC001023148918   -0.1500
     23 C23        -4.7130    1.5770   51.4468 C.3     1  ZINC001023148918    0.0900
     24 H24        -4.5590    0.9764   52.3434 H       1  ZINC001023148918    0.1400
     25 O25        -4.2096    1.0080   50.1880 O.3     1  ZINC001023148918   -0.3600
     26 C26        -7.9243    1.5713   53.4473 C.3     1  ZINC001023148918    0.0700
     27 C27        -8.9469    1.0476   54.4783 C.3     1  ZINC001023148918    0.0900
     28 H28        -8.4411    0.5397   55.2995 H       1  ZINC001023148918    0.0800
     29 O29        -9.7604    2.1144   54.9704 O.3     1  ZINC001023148918   -0.5500
     30 C30       -13.5576   -2.3047   55.8454 C.2     1  ZINC001023148918   -0.1800
     31 H31       -14.9592   -4.9521   56.6255 H       1  ZINC001023148918    0.0800
     32 H32       -14.7481   -4.3548   58.2889 H       1  ZINC001023148918    0.0700
     33 H33       -15.7213   -3.4232   57.1255 H       1  ZINC001023148918    0.0800
     34 H34        -9.6094   -3.3476   56.3999 H       1  ZINC001023148918    0.0900
     35 H35        -9.7691   -1.6128   56.7649 H       1  ZINC001023148918    0.1100
     36 H36        -9.9691   -2.8170   58.0604 H       1  ZINC001023148918    0.0900
     37 H37        -9.8414   -1.7558   54.7763 H       1  ZINC001023148918    0.4100
     38 H38        -8.1654   -1.3461   53.2154 H       1  ZINC001023148918    0.0800
     39 H39        -9.1896   -0.9492   51.8018 H       1  ZINC001023148918    0.0900
     40 H40        -6.6777    1.5294   48.9612 H       1  ZINC001023148918    0.0800
     41 H41        -6.4298    3.2563   49.3816 H       1  ZINC001023148918    0.0900
     42 H42        -2.8659    3.4156   49.6212 H       1  ZINC001023148918    0.0800
     43 H43        -4.4610    4.2335   49.7059 H       1  ZINC001023148918    0.0800
     44 H44        -3.0029    2.9141   51.8847 H       1  ZINC001023148918    0.0800
     45 H45        -4.5980    3.7320   51.9693 H       1  ZINC001023148918    0.0800
     46 H46        -6.9513    1.6993   53.9219 H       1  ZINC001023148918    0.0800
     47 H47        -8.2664    2.5211   53.0364 H       1  ZINC001023148918    0.0900
     48 H48       -10.4113    2.4388   54.3331 H       1  ZINC001023148918    0.3900
     49 H49       -14.3766   -1.9154   55.2588 H       1  ZINC001023148918    0.1600
@<TRIPOS>BOND
     1     1     2    1
     2     1    31    1
     3     1    32    1
     4     1    33    1
     5     2    30    1
     6     2     3    2
     7     3     4    1
     8     4     5    1
     9     4     6    1
    10     5    34    1
    11     5    35    1
    12     5    36    1
    13     6     7    1
    14     6    30    2
    15     7     8    2
    16     7     9   am
    17     9    10    1
    18     9    37    1
    19    10    11    1
    20    10    27    1
    21    10    12    1
    22    12    13    1
    23    12    38    1
    24    12    39    1
    25    13    14   am
    26    13    26    1
    27    14    15    2
    28    14    16    1
    29    16    17    1
    30    16    23    1
    31    16    18    1
    32    18    19    1
    33    18    40    1
    34    18    41    1
    35    19    20    1
    36    19    25    1
    37    19    21    1
    38    21    22    1
    39    21    42    1
    40    21    43    1
    41    22    23    1
    42    22    44    1
    43    22    45    1
    44    23    24    1
    45    23    25    1
    46    26    27    1
    47    26    46    1
    48    26    47    1
    49    27    28    1
    50    27    29    1
    51    29    48    1
    52    30    49    1
@<TRIPOS>SUBSTRUCTURE
     1 ZINC001023148918        1 TEMP              0 ****  ****    0 ROOT


##########                                Name:    ZINC000279331220
##########                DOCK_Rotatable_Bonds:                   9
##########                         Heavy_Atoms:                  24
##########                    Molecular_Weight:             328.411
##########                DOCK_Rotatable_Bonds:                   9
##########                       Formal_Charge:          -0.0100001
##########                     HBond_Acceptors:                   5
##########                        HBond_Donors:                   0
##########                         Heavy_Atoms:                  24
##########                          Grid_Score:          -33.833740
##########                     Grid_vdw_energy:          -33.122574
##########                      Grid_es_energy:           -0.711166
##########           Internal_energy_repulsive:           20.505348

@<TRIPOS>MOLECULE
ZINC000279331220
 48 49 1 0 0
SMALL
USER_CHARGES


@<TRIPOS>ATOM
      1 C1         -5.7073    3.1740   56.6273 C.3     1  ZINC000279331220   -0.1500
      2 C2         -7.0573    2.4549   56.5939 C.3     1  ZINC000279331220    0.0500
      3 O3         -7.2330    1.8306   55.3205 O.3     1  ZINC000279331220   -0.3000
      4 C4         -8.4194    1.2039   55.0986 C.ar    1  ZINC000279331220    0.1000
      5 C5         -9.4017    1.2113   56.0754 C.ar    1  ZINC000279331220   -0.1700
      6 C6        -10.6076    0.5740   55.8479 C.ar    1  ZINC000279331220   -0.1200
      7 C7        -10.8359   -0.0717   54.6473 C.ar    1  ZINC000279331220   -0.1200
      8 C8         -9.8594   -0.0832   53.6683 C.ar    1  ZINC000279331220   -0.1700
      9 C9         -8.6515    0.5586   53.8873 C.ar    1  ZINC000279331220    0.1000
     10 O10        -7.6902    0.5482   52.9255 O.3     1  ZINC000279331220   -0.3000
     11 C11        -7.9566   -0.2194   51.7501 C.3     1  ZINC000279331220    0.0600
     12 C12        -6.7090   -0.2468   50.8650 C.3     1  ZINC000279331220   -0.1100
     13 C13        -6.3887    1.1721   50.3908 C.3     1  ZINC000279331220   -0.1300
     14 C14        -4.9833    1.2155   49.8487 C.2     1  ZINC000279331220    0.5200
     15 O15        -4.3463    0.1901   49.7325 O.2     1  ZINC000279331220   -0.5200
     16 N16        -4.4342    2.3938   49.4930 N.am    1  ZINC000279331220   -0.5700
     17 C17        -5.2031    3.6327   49.6350 C.3     1  ZINC000279331220    0.0800
     18 C18        -3.1347    2.4337   48.9900 C.ar    1  ZINC000279331220    0.3400
     19 N19        -2.9130    2.1287   47.7214 N.ar    1  ZINC000279331220   -0.4800
     20 C20        -1.6989    2.1539   47.2055 C.ar    1  ZINC000279331220    0.1100
     21 C21        -0.6086    2.5022   47.9777 C.ar    1  ZINC000279331220   -0.1600
     22 C22        -0.7986    2.8291   49.3137 C.ar    1  ZINC000279331220   -0.0700
     23 C23        -2.0842    2.7990   49.8243 C.ar    1  ZINC000279331220   -0.1200
     24 C24        -2.3408    3.1462   51.2681 C.3     1  ZINC000279331220   -0.1100
     25 H25        -5.5732    3.6501   57.5986 H       1  ZINC000279331220    0.0800
     26 H26        -4.9071    2.4524   56.4629 H       1  ZINC000279331220    0.0700
     27 H27        -5.6798    3.9318   55.8443 H       1  ZINC000279331220    0.0700
     28 H28        -7.0848    1.6971   57.3769 H       1  ZINC000279331220    0.0600
     29 H29        -7.8576    3.1764   56.7584 H       1  ZINC000279331220    0.0600
     30 H30        -9.2255    1.7145   57.0146 H       1  ZINC000279331220    0.1300
     31 H31       -11.3727    0.5804   56.6102 H       1  ZINC000279331220    0.1300
     32 H32       -11.7790   -0.5686   54.4737 H       1  ZINC000279331220    0.1300
     33 H33       -10.0402   -0.5890   52.7313 H       1  ZINC000279331220    0.1300
     34 H34        -8.2234   -1.2375   52.0337 H       1  ZINC000279331220    0.0600
     35 H35        -8.7822    0.2327   51.2003 H       1  ZINC000279331220    0.0600
     36 H36        -5.8669   -0.6378   51.4360 H       1  ZINC000279331220    0.0800
     37 H37        -6.8904   -0.8863   50.0011 H       1  ZINC000279331220    0.0800
     38 H38        -7.0895    1.4602   49.6072 H       1  ZINC000279331220    0.1000
     39 H39        -6.4765    1.8637   51.2288 H       1  ZINC000279331220    0.1000
     40 H40        -5.1026    4.0079   50.6535 H       1  ZINC000279331220    0.0700
     41 H41        -4.8249    4.3773   48.9345 H       1  ZINC000279331220    0.0800
     42 H42        -6.2537    3.4347   49.4228 H       1  ZINC000279331220    0.0800
     43 H43        -1.5560    1.8984   46.1660 H       1  ZINC000279331220    0.1600
     44 H44         0.3817    2.5198   47.5472 H       1  ZINC000279331220    0.1400
     45 H45         0.0377    3.1050   49.9390 H       1  ZINC000279331220    0.1400
     46 H46        -2.6173    4.1978   51.3453 H       1  ZINC000279331220    0.0800
     47 H47        -3.1524    2.5280   51.6518 H       1  ZINC000279331220    0.0700
     48 H48        -1.4382    2.9642   51.8515 H       1  ZINC000279331220    0.0700
@<TRIPOS>BOND
     1     1     2    1
     2     1    25    1
     3     1    26    1
     4     1    27    1
     5     2     3    1
     6     2    28    1
     7     2    29    1
     8     3     4    1
     9     4     9   ar
    10     4     5   ar
    11     5     6   ar
    12     5    30    1
    13     6     7   ar
    14     6    31    1
    15     7     8   ar
    16     7    32    1
    17     8     9   ar
    18     8    33    1
    19     9    10    1
    20    10    11    1
    21    11    12    1
    22    11    34    1
    23    11    35    1
    24    12    13    1
    25    12    36    1
    26    12    37    1
    27    13    14    1
    28    13    38    1
    29    13    39    1
    30    14    15    2
    31    14    16   am
    32    16    17    1
    33    16    18    1
    34    17    40    1
    35    17    41    1
    36    17    42    1
    37    18    23   ar
    38    18    19   ar
    39    19    20   ar
    40    20    21   ar
    41    20    43    1
    42    21    22   ar
    43    21    44    1
    44    22    23   ar
    45    22    45    1
    46    23    24    1
    47    24    46    1
    48    24    47    1
    49    24    48    1
@<TRIPOS>SUBSTRUCTURE
     1 ZINC000279331220        1 TEMP              0 ****  ****    0 ROOT


##########                                Name:    ZINC000807524472
##########                DOCK_Rotatable_Bonds:                   9
##########                         Heavy_Atoms:                  28
##########                    Molecular_Weight:             410.534
##########                DOCK_Rotatable_Bonds:                   9
##########                       Formal_Charge:           0.0200006
##########                     HBond_Acceptors:                   8
##########                        HBond_Donors:                   0
##########                         Heavy_Atoms:                  28
##########                          Grid_Score:          -33.785500
##########                     Grid_vdw_energy:          -32.558388
##########                      Grid_es_energy:           -1.227113
##########           Internal_energy_repulsive:           14.379519

@<TRIPOS>MOLECULE
ZINC000807524472
 58 60 1 0 0
SMALL
USER_CHARGES


@<TRIPOS>ATOM
      1 C1          0.6798    2.9913   58.3940 C.3     1  ZINC000807524472   -0.1500
      2 C2          0.7210    2.3123   57.0235 C.3     1  ZINC000807524472    0.0600
      3 O3          0.2338    3.2159   56.0294 O.3     1  ZINC000807524472   -0.3800
      4 C4         -1.1332    3.5929   56.2066 C.3     1  ZINC000807524472    0.0600
      5 C5         -1.5706    4.4865   55.0444 C.3     1  ZINC000807524472    0.0700
      6 O6         -1.6691    3.6917   53.8332 O.3     1  ZINC000807524472   -0.3500
      7 C7         -1.8310    4.3600   52.6742 C.2     1  ZINC000807524472    0.5000
      8 O8         -1.5480    5.5400   52.6087 O.2     1  ZINC000807524472   -0.4600
      9 C9         -2.3510    3.6603   51.4870 C.ar    1  ZINC000807524472   -0.1200
     10 C10        -3.7244    3.4453   51.3427 C.ar    1  ZINC000807524472    0.0400
     11 C11        -4.2042    2.7906   50.2296 C.ar    1  ZINC000807524472   -0.7000
     12 S12        -5.9363    2.5215   50.0502 S.o2    1  ZINC000807524472    2.6900
     13 O13        -6.5326    3.8065   49.9387 O.2     1  ZINC000807524472   -0.9500
     14 O14        -6.0851    1.5076   49.0657 O.2     1  ZINC000807524472   -0.9500
     15 N15        -6.4820    1.8747   51.4736 N.am    1  ZINC000807524472   -0.9900
     16 C16        -7.5151    2.5617   52.2606 C.3     1  ZINC000807524472    0.1200
     17 C17        -8.6624    1.5828   52.5297 C.3     1  ZINC000807524472   -0.1400
     18 C18        -8.1054    0.3195   53.1901 C.3     1  ZINC000807524472   -0.1200
     19 C19        -7.1071   -0.3541   52.2458 C.3     1  ZINC000807524472   -0.1400
     20 C20        -5.9465    0.5998   51.9705 C.3     1  ZINC000807524472    0.1200
     21 C21        -3.3321    2.3429   49.2501 C.ar    1  ZINC000807524472    0.0200
     22 C22        -1.9734    2.5468   49.3776 C.ar    1  ZINC000807524472   -0.1800
     23 C23        -1.4704    3.2100   50.4898 C.ar    1  ZINC000807524472    0.2000
     24 N24        -0.1038    3.4168   50.6203 N.3     1  ZINC000807524472   -0.4800
     25 C25         0.6338    2.1277   50.6022 C.3     1  ZINC000807524472    0.0400
     26 C26         2.0765    2.5499   50.2271 C.3     1  ZINC000807524472   -0.1200
     27 C27         1.8492    3.6855   49.2030 C.3     1  ZINC000807524472   -0.1300
     28 C28         0.4248    4.1999   49.4824 C.3     1  ZINC000807524472    0.0400
     29 H29        -0.3468    3.2717   58.6298 H       1  ZINC000807524472    0.0600
     30 H30         1.0515    2.3021   59.1522 H       1  ZINC000807524472    0.0700
     31 H31         1.3053    3.8838   58.3763 H       1  ZINC000807524472    0.0700
     32 H32         1.7477    2.0320   56.7876 H       1  ZINC000807524472    0.0500
     33 H33         0.0955    1.4198   57.0412 H       1  ZINC000807524472    0.0500
     34 H34        -1.7562    2.6989   56.2321 H       1  ZINC000807524472    0.0600
     35 H35        -1.2412    4.1378   57.1445 H       1  ZINC000807524472    0.0700
     36 H36        -2.5420    4.9266   55.2700 H       1  ZINC000807524472    0.0900
     37 H37        -0.8371    5.2797   54.8998 H       1  ZINC000807524472    0.0800
     38 H38        -4.4087    3.7917   52.1031 H       1  ZINC000807524472    0.1600
     39 H39        -7.0909    2.8966   53.2072 H       1  ZINC000807524472    0.0800
     40 H40        -7.8900    3.4193   51.7020 H       1  ZINC000807524472    0.0900
     41 H41        -9.3906    2.0492   53.1931 H       1  ZINC000807524472    0.0800
     42 H42        -9.1438    1.3189   51.5880 H       1  ZINC000807524472    0.0700
     43 H43        -7.6024    0.5872   54.1194 H       1  ZINC000807524472    0.0700
     44 H44        -8.9230   -0.3685   53.4051 H       1  ZINC000807524472    0.0700
     45 H45        -6.7284   -1.2661   52.7071 H       1  ZINC000807524472    0.0800
     46 H46        -7.6032   -0.5997   51.3068 H       1  ZINC000807524472    0.0700
     47 H47        -5.2846    0.1636   51.2224 H       1  ZINC000807524472    0.0900
     48 H48        -5.3928    0.7773   52.8923 H       1  ZINC000807524472    0.0800
     49 H49        -3.7185    1.8306   48.3813 H       1  ZINC000807524472    0.1500
     50 H50        -1.3006    2.1943   48.6098 H       1  ZINC000807524472    0.1400
     51 H51         0.6136    1.6590   51.5861 H       1  ZINC000807524472    0.0900
     52 H52         0.2203    1.4585   49.8476 H       1  ZINC000807524472    0.0500
     53 H53         2.6097    2.9210   51.1024 H       1  ZINC000807524472    0.0800
     54 H54         2.6147    1.7198   49.7695 H       1  ZINC000807524472    0.0800
     55 H55         2.5761    4.4833   49.3551 H       1  ZINC000807524472    0.0800
     56 H56         1.9189    3.2979   48.1866 H       1  ZINC000807524472    0.0700
     57 H57        -0.2033    4.0491   48.6043 H       1  ZINC000807524472    0.0500
     58 H58         0.4565    5.2579   49.7425 H       1  ZINC000807524472    0.0900
@<TRIPOS>BOND
     1     1     2    1
     2     1    29    1
     3     1    30    1
     4     1    31    1
     5     2     3    1
     6     2    32    1
     7     2    33    1
     8     3     4    1
     9     4     5    1
    10     4    34    1
    11     4    35    1
    12     5     6    1
    13     5    36    1
    14     5    37    1
    15     6     7    1
    16     7     8    2
    17     7     9    1
    18     9    23   ar
    19     9    10   ar
    20    10    11   ar
    21    10    38    1
    22    11    12    1
    23    11    21   ar
    24    12    13    2
    25    12    14    2
    26    12    15   am
    27    15    20    1
    28    15    16    1
    29    16    17    1
    30    16    39    1
    31    16    40    1
    32    17    18    1
    33    17    41    1
    34    17    42    1
    35    18    19    1
    36    18    43    1
    37    18    44    1
    38    19    20    1
    39    19    45    1
    40    19    46    1
    41    20    47    1
    42    20    48    1
    43    21    22   ar
    44    21    49    1
    45    22    23   ar
    46    22    50    1
    47    23    24    1
    48    24    28    1
    49    24    25    1
    50    25    26    1
    51    25    51    1
    52    25    52    1
    53    26    27    1
    54    26    53    1
    55    26    54    1
    56    27    28    1
    57    27    55    1
    58    27    56    1
    59    28    57    1
    60    28    58    1
@<TRIPOS>SUBSTRUCTURE
     1 ZINC000807524472        1 TEMP              0 ****  ****    0 ROOT


##########                                Name:    ZINC000175255939
##########                DOCK_Rotatable_Bonds:                   8
##########                         Heavy_Atoms:                  28
##########                    Molecular_Weight:             394.375
##########                DOCK_Rotatable_Bonds:                   8
##########                       Formal_Charge:          -0.0399999
##########                     HBond_Acceptors:                   9
##########                        HBond_Donors:                   1
##########                         Heavy_Atoms:                  28
##########                          Grid_Score:          -33.721336
##########                     Grid_vdw_energy:          -34.662357
##########                      Grid_es_energy:            0.941021
##########           Internal_energy_repulsive:            9.216278

@<TRIPOS>MOLECULE
ZINC000175255939
 48 50 1 0 0
SMALL
USER_CHARGES


@<TRIPOS>ATOM
      1 C1        -14.5862   -5.4276   56.7016 C.3     1  ZINC000175255939    0.0300
      2 O2        -13.6089   -4.3537   56.7006 O.3     1  ZINC000175255939   -0.3600
      3 C3        -13.8343   -3.3239   57.5317 C.2     1  ZINC000175255939    0.4600
      4 O4        -14.8451   -3.2911   58.1927 O.2     1  ZINC000175255939   -0.5000
      5 C5        -12.8266   -2.2087   57.6400 C.3     1  ZINC000175255939   -0.0800
      6 H6        -13.3476   -1.2581   57.7547 H       1  ZINC000175255939    0.1100
      7 C7        -11.9292   -2.4484   58.8558 C.3     1  ZINC000175255939   -0.1200
      8 C8        -10.9061   -1.3161   58.9657 C.3     1  ZINC000175255939   -0.1100
      9 C9        -10.0492   -1.2784   57.6987 C.3     1  ZINC000175255939   -0.1200
     10 C10       -10.9465   -1.0385   56.4830 C.3     1  ZINC000175255939   -0.1000
     11 H11       -11.4674   -0.0880   56.5977 H       1  ZINC000175255939    0.1100
     12 C12       -10.1024   -1.0014   55.2351 C.2     1  ZINC000175255939    0.5100
     13 O13        -9.7009   -2.0348   54.7436 O.2     1  ZINC000175255939   -0.4800
     14 N14        -9.7937    0.1804   54.6654 N.am    1  ZINC000175255939   -0.6300
     15 C15        -9.0150    0.2147   53.5172 C.2     1  ZINC000175255939    0.2100
     16 C16        -8.0401    1.1194   53.2197 C.2     1  ZINC000175255939   -0.2600
     17 C17        -7.5679    0.7046   51.9473 C.2     1  ZINC000175255939    0.0900
     18 C18        -6.4946    1.3416   51.1447 C.ar    1  ZINC000175255939   -0.0500
     19 C19        -6.2416    2.7059   51.2750 C.ar    1  ZINC000175255939   -0.0600
     20 C20        -5.2437    3.2952   50.5280 C.ar    1  ZINC000175255939   -0.1300
     21 C21        -4.4913    2.5307   49.6462 C.ar    1  ZINC000175255939    0.1200
     22 O22        -3.5087    3.1138   48.9115 O.3     1  ZINC000175255939   -0.3200
     23 C23        -2.3167    2.3539   48.7030 C.3     1  ZINC000175255939    0.4100
     24 F24        -2.2998    1.8630   47.3929 F       1  ZINC000175255939   -0.2000
     25 F25        -1.2004    3.1716   48.9090 F       1  ZINC000175255939   -0.2000
     26 C26        -4.7411    1.1712   49.5144 C.ar    1  ZINC000175255939   -0.1900
     27 C27        -5.7337    0.5754   50.2635 C.ar    1  ZINC000175255939   -0.0500
     28 N28        -8.2703   -0.3546   51.6227 N.2     1  ZINC000175255939   -0.3600
     29 O29        -9.0697   -0.6402   52.4834 O.3     1  ZINC000175255939    0.1200
     30 C30       -11.9696   -2.1708   56.3730 C.3     1  ZINC000175255939   -0.0900
     31 H31       -14.2847   -6.1939   55.9874 H       1  ZINC000175255939    0.1000
     32 H32       -14.6459   -5.8636   57.6988 H       1  ZINC000175255939    0.0600
     33 H33       -15.5616   -5.0315   56.4192 H       1  ZINC000175255939    0.0600
     34 H34       -12.5398   -2.4753   59.7583 H       1  ZINC000175255939    0.0800
     35 H35       -11.4083   -3.3990   58.7409 H       1  ZINC000175255939    0.0700
     36 H36       -11.4270   -0.3656   59.0805 H       1  ZINC000175255939    0.0700
     37 H37       -10.2669   -1.4870   59.8318 H       1  ZINC000175255939    0.0800
     38 H38        -9.3202   -0.4717   57.7771 H       1  ZINC000175255939    0.0700
     39 H39        -9.5281   -2.2289   57.5840 H       1  ZINC000175255939    0.0800
     40 H40       -10.1158    1.0069   55.0579 H       1  ZINC000175255939    0.4300
     41 H41        -7.7051    1.9569   53.8137 H       1  ZINC000175255939    0.1800
     42 H42        -6.8270    3.3012   51.9602 H       1  ZINC000175255939    0.1400
     43 H43        -5.0473    4.3524   50.6285 H       1  ZINC000175255939    0.1400
     44 H44        -2.2904    1.5196   49.4039 H       1  ZINC000175255939    0.1900
     45 H45        -4.1544    0.5790   48.8277 H       1  ZINC000175255939    0.1400
     46 H46        -5.9272   -0.4820   50.1608 H       1  ZINC000175255939    0.1400
     47 H47       -11.4487   -3.1213   56.2583 H       1  ZINC000175255939    0.0900
     48 H48       -12.6089   -2.0000   55.5069 H       1  ZINC000175255939    0.0800
@<TRIPOS>BOND
     1     1     2    1
     2     1    31    1
     3     1    32    1
     4     1    33    1
     5     2     3    1
     6     3     4    2
     7     3     5    1
     8     5     6    1
     9     5    30    1
    10     5     7    1
    11     7     8    1
    12     7    34    1
    13     7    35    1
    14     8     9    1
    15     8    36    1
    16     8    37    1
    17     9    10    1
    18     9    38    1
    19     9    39    1
    20    10    11    1
    21    10    12    1
    22    10    30    1
    23    12    13    2
    24    12    14   am
    25    14    15    1
    26    14    40    1
    27    15    29    1
    28    15    16    2
    29    16    17    1
    30    16    41    1
    31    17    18    1
    32    17    28    2
    33    18    27   ar
    34    18    19   ar
    35    19    20   ar
    36    19    42    1
    37    20    21   ar
    38    20    43    1
    39    21    22    1
    40    21    26   ar
    41    22    23    1
    42    23    24    1
    43    23    25    1
    44    23    44    1
    45    26    27   ar
    46    26    45    1
    47    27    46    1
    48    28    29    1
    49    30    47    1
    50    30    48    1
@<TRIPOS>SUBSTRUCTURE
     1 ZINC000175255939        1 TEMP              0 ****  ****    0 ROOT


##########                                Name:    ZINC000185598309
##########                DOCK_Rotatable_Bonds:                  14
##########                         Heavy_Atoms:                  25
##########                    Molecular_Weight:             347.457
##########                DOCK_Rotatable_Bonds:                  14
##########                       Formal_Charge:               -0.02
##########                     HBond_Acceptors:                   6
##########                        HBond_Donors:                   4
##########                         Heavy_Atoms:                  25
##########                          Grid_Score:          -33.686306
##########                     Grid_vdw_energy:          -31.443584
##########                      Grid_es_energy:           -2.242721
##########           Internal_energy_repulsive:            9.051625

@<TRIPOS>MOLECULE
ZINC000185598309
 54 54 1 0 0
SMALL
USER_CHARGES


@<TRIPOS>ATOM
      1 C1        -16.0596   -4.1977   47.8312 C.3     1  ZINC000185598309   -0.1300
      2 C2        -15.3791   -3.0444   47.1400 C.2     1  ZINC000185598309   -0.1600
      3 C3        -15.7429   -1.8144   47.4060 C.2     1  ZINC000185598309   -0.1600
      4 C4        -15.0638   -0.6611   46.7135 C.3     1  ZINC000185598309   -0.0900
      5 C5        -15.1718    0.5921   47.5846 C.3     1  ZINC000185598309    0.1700
      6 H6        -15.2444    0.3010   48.6325 H       1  ZINC000185598309    0.1000
      7 C7        -16.4197    1.3833   47.1873 C.3     1  ZINC000185598309    0.0600
      8 O8        -17.5425    0.9076   47.9321 O.3     1  ZINC000185598309   -0.5700
      9 N9        -13.9829    1.4257   47.3905 N.am    1  ZINC000185598309   -0.7300
     10 C10       -13.5560    2.2321   48.3824 C.2     1  ZINC000185598309    0.7000
     11 O11       -14.1569    2.2666   49.4388 O.2     1  ZINC000185598309   -0.5900
     12 N12       -12.4630    3.0001   48.2033 N.am    1  ZINC000185598309   -0.7400
     13 C13       -12.0002    3.8781   49.2809 C.3     1  ZINC000185598309    0.1800
     14 C14       -10.6625    4.4654   48.9107 C.ar    1  ZINC000185598309   -0.0900
     15 C15       -10.5545    5.2998   47.8137 C.ar    1  ZINC000185598309   -0.1100
     16 C16        -9.3287    5.8404   47.4704 C.ar    1  ZINC000185598309   -0.1000
     17 C17        -8.2084    5.5483   48.2231 C.ar    1  ZINC000185598309   -0.1100
     18 C18        -8.3136    4.7107   49.3260 C.ar    1  ZINC000185598309    0.1400
     19 N19        -7.1806    4.4131   50.0911 N.am    1  ZINC000185598309   -0.6800
     20 C20        -6.5727    3.2175   49.9583 C.2     1  ZINC000185598309    0.5200
     21 O21        -7.0079    2.3996   49.1757 O.2     1  ZINC000185598309   -0.5200
     22 C22        -5.3523    2.8971   50.7824 C.3     1  ZINC000185598309   -0.1100
     23 H23        -5.1235    1.8350   50.6950 H       1  ZINC000185598309    0.1000
     24 C24        -5.6220    3.2417   52.2485 C.3     1  ZINC000185598309   -0.1500
     25 C25        -4.1648    3.7180   50.2756 C.3     1  ZINC000185598309   -0.1100
     26 C26        -3.4007    2.9130   49.2226 C.3     1  ZINC000185598309   -0.1600
     27 C27        -9.5468    4.1737   49.6711 C.ar    1  ZINC000185598309   -0.1300
     28 H28       -15.6261   -5.1359   47.4847 H       1  ZINC000185598309    0.0600
     29 H29       -15.9199   -4.1091   48.9086 H       1  ZINC000185598309    0.0600
     30 H30       -17.1247   -4.1824   47.6003 H       1  ZINC000185598309    0.0600
     31 H31       -14.5914   -3.2319   46.4251 H       1  ZINC000185598309    0.1100
     32 H32       -16.5297   -1.6269   48.1219 H       1  ZINC000185598309    0.1100
     33 H33       -14.0130   -0.9020   46.5521 H       1  ZINC000185598309    0.0900
     34 H34       -15.5464   -0.4788   45.7532 H       1  ZINC000185598309    0.0800
     35 H35       -16.2630    2.4405   47.4016 H       1  ZINC000185598309    0.0500
     36 H36       -16.6086    1.2527   46.1218 H       1  ZINC000185598309    0.0500
     37 H37       -18.3810    1.3230   47.6880 H       1  ZINC000185598309    0.3800
     38 H38       -13.5028    1.3972   46.5481 H       1  ZINC000185598309    0.4000
     39 H39       -11.9830    2.9717   47.3608 H       1  ZINC000185598309    0.4000
     40 H40       -12.7212    4.6818   49.4298 H       1  ZINC000185598309    0.0700
     41 H41       -11.9021    3.3027   50.2015 H       1  ZINC000185598309    0.0800
     42 H42       -11.4291    5.5298   47.2234 H       1  ZINC000185598309    0.1300
     43 H43        -9.2473    6.4914   46.6124 H       1  ZINC000185598309    0.1300
     44 H44        -7.2514    5.9705   47.9543 H       1  ZINC000185598309    0.1300
     45 H45        -6.8325    5.0673   50.7170 H       1  ZINC000185598309    0.4100
     46 H46        -6.4681    2.6568   52.6095 H       1  ZINC000185598309    0.0600
     47 H47        -4.7394    3.0100   52.8445 H       1  ZINC000185598309    0.0800
     48 H48        -5.8509    4.3038   52.3358 H       1  ZINC000185598309    0.0600
     49 H49        -4.5271    4.6453   49.8318 H       1  ZINC000185598309    0.0700
     50 H50        -3.5009    3.9490   51.1087 H       1  ZINC000185598309    0.0700
     51 H51        -3.0383    1.9857   49.6664 H       1  ZINC000185598309    0.0600
     52 H52        -4.0645    2.6820   48.3895 H       1  ZINC000185598309    0.0600
     53 H53        -2.5546    3.4979   48.8616 H       1  ZINC000185598309    0.0600
     54 H54        -9.6319    3.5221   50.5282 H       1  ZINC000185598309    0.1300
@<TRIPOS>BOND
     1     1     2    1
     2     1    28    1
     3     1    29    1
     4     1    30    1
     5     2     3    2
     6     2    31    1
     7     3     4    1
     8     3    32    1
     9     4     5    1
    10     4    33    1
    11     4    34    1
    12     5     6    1
    13     5     7    1
    14     5     9    1
    15     7     8    1
    16     7    35    1
    17     7    36    1
    18     8    37    1
    19     9    10   am
    20     9    38    1
    21    10    11    2
    22    10    12   am
    23    12    13    1
    24    12    39    1
    25    13    14    1
    26    13    40    1
    27    13    41    1
    28    14    27   ar
    29    14    15   ar
    30    15    16   ar
    31    15    42    1
    32    16    17   ar
    33    16    43    1
    34    17    18   ar
    35    17    44    1
    36    18    19    1
    37    18    27   ar
    38    19    20   am
    39    19    45    1
    40    20    21    2
    41    20    22    1
    42    22    23    1
    43    22    24    1
    44    22    25    1
    45    24    46    1
    46    24    47    1
    47    24    48    1
    48    25    26    1
    49    25    49    1
    50    25    50    1
    51    26    51    1
    52    26    52    1
    53    26    53    1
    54    27    54    1
@<TRIPOS>SUBSTRUCTURE
     1 ZINC000185598309        1 TEMP              0 ****  ****    0 ROOT


##########                                Name:    ZINC001169875900
##########                DOCK_Rotatable_Bonds:                   9
##########                         Heavy_Atoms:                  24
##########                    Molecular_Weight:             329.399
##########                DOCK_Rotatable_Bonds:                   9
##########                       Formal_Charge:          -0.0500002
##########                     HBond_Acceptors:                   6
##########                        HBond_Donors:                   1
##########                         Heavy_Atoms:                  24
##########                          Grid_Score:          -33.683598
##########                     Grid_vdw_energy:          -33.623047
##########                      Grid_es_energy:           -0.060549
##########           Internal_energy_repulsive:            4.780777

@<TRIPOS>MOLECULE
ZINC001169875900
 47 48 1 0 0
SMALL
USER_CHARGES


@<TRIPOS>ATOM
      1 C1         -1.6055    2.8977   49.1874 C.3     1  ZINC001169875900   -0.1500
      2 C2         -2.8928    2.2282   48.7020 C.3     1  ZINC001169875900   -0.1300
      3 C3         -3.9414    2.2717   49.8153 C.3     1  ZINC001169875900    0.0700
      4 O4         -5.1073    1.5577   49.3998 O.3     1  ZINC001169875900   -0.3100
      5 C5         -5.9800    1.1841   50.3706 C.ar    1  ZINC001169875900    0.2700
      6 N6         -5.6977    0.1457   51.1383 N.ar    1  ZINC001169875900   -0.5000
      7 C7         -6.5185   -0.2572   52.0899 C.ar    1  ZINC001169875900    0.0600
      8 C8         -7.7139    0.4060   52.3224 C.ar    1  ZINC001169875900    0.1400
      9 N9         -8.5800   -0.0272   53.3332 N.pl3   1  ZINC001169875900   -0.7400
     10 C10        -9.1185    0.9346   54.2982 C.3     1  ZINC001169875900    0.1800
     11 C11        -9.5407    0.2081   55.5493 C.ar    1  ZINC001169875900    0.1000
     12 C12       -10.5981   -0.6861   55.4964 C.ar    1  ZINC001169875900   -0.1200
     13 C13       -10.9832   -1.3522   56.6495 C.ar    1  ZINC001169875900   -0.0800
     14 C14       -10.2908   -1.0973   57.8227 C.ar    1  ZINC001169875900   -0.1000
     15 C15        -9.2374   -0.1853   57.8023 C.ar    1  ZINC001169875900    0.0900
     16 C16        -8.4875    0.0982   59.0473 C.2     1  ZINC001169875900    0.5200
     17 O17        -7.4252    0.6841   58.9961 O.2     1  ZINC001169875900   -0.5000
     18 O18        -8.9839   -0.2937   60.2363 O.3     1  ZINC001169875900   -0.3300
     19 C19        -8.2269    0.0731   61.4198 C.3     1  ZINC001169875900    0.0600
     20 C20        -9.0614   -0.2166   62.6691 C.3     1  ZINC001169875900   -0.1500
     21 N21        -8.8972    0.4274   56.6749 N.ar    1  ZINC001169875900   -0.4200
     22 C22        -8.0422    1.5091   51.5363 C.ar    1  ZINC001169875900   -0.1200
     23 C23        -7.1562    1.9010   50.5487 C.ar    1  ZINC001169875900   -0.1000
     24 C24        -7.4663    3.0876   49.6729 C.3     1  ZINC001169875900   -0.1000
     25 H25        -1.2284    2.3686   50.0626 H       1  ZINC001169875900    0.0600
     26 H26        -0.8585    2.8666   48.3942 H       1  ZINC001169875900    0.0600
     27 H27        -1.8125    3.9348   49.4510 H       1  ZINC001169875900    0.0600
     28 H28        -2.6857    1.1909   48.4384 H       1  ZINC001169875900    0.0700
     29 H29        -3.2699    2.7573   47.8268 H       1  ZINC001169875900    0.0700
     30 H30        -4.2057    3.3082   50.0252 H       1  ZINC001169875900    0.0600
     31 H31        -3.5348    1.8110   50.7157 H       1  ZINC001169875900    0.0600
     32 H32        -6.2564   -1.1133   52.6940 H       1  ZINC001169875900    0.1500
     33 H33        -8.8237   -0.9640   53.3946 H       1  ZINC001169875900    0.4000
     34 H34        -8.3519    1.6689   54.5457 H       1  ZINC001169875900    0.0800
     35 H35        -9.9803    1.4413   53.8640 H       1  ZINC001169875900    0.0800
     36 H36       -11.1173   -0.8620   54.5658 H       1  ZINC001169875900    0.1500
     37 H37       -11.8039   -2.0541   56.6339 H       1  ZINC001169875900    0.1500
     38 H38       -10.5639   -1.5982   58.7397 H       1  ZINC001169875900    0.1500
     39 H39        -7.3052   -0.5075   61.4559 H       1  ZINC001169875900    0.0700
     40 H40        -7.9859    1.1354   61.3821 H       1  ZINC001169875900    0.0700
     41 H41        -9.9832    0.3640   62.6330 H       1  ZINC001169875900    0.0700
     42 H42        -9.3024   -1.2789   62.7067 H       1  ZINC001169875900    0.0700
     43 H43        -8.4931    0.0588   63.5575 H       1  ZINC001169875900    0.0800
     44 H44        -8.9664    2.0451   51.6941 H       1  ZINC001169875900    0.1400
     45 H45        -7.0675    3.9922   50.1320 H       1  ZINC001169875900    0.0700
     46 H46        -8.5462    3.1833   49.5597 H       1  ZINC001169875900    0.0700
     47 H47        -7.0094    2.9455   48.6935 H       1  ZINC001169875900    0.0700
@<TRIPOS>BOND
     1     1     2    1
     2     1    25    1
     3     1    26    1
     4     1    27    1
     5     2     3    1
     6     2    28    1
     7     2    29    1
     8     3     4    1
     9     3    30    1
    10     3    31    1
    11     4     5    1
    12     5    23   ar
    13     5     6   ar
    14     6     7   ar
    15     7     8   ar
    16     7    32    1
    17     8     9    1
    18     8    22   ar
    19     9    10    1
    20     9    33    1
    21    10    11    1
    22    10    34    1
    23    10    35    1
    24    11    21   ar
    25    11    12   ar
    26    12    13   ar
    27    12    36    1
    28    13    14   ar
    29    13    37    1
    30    14    15   ar
    31    14    38    1
    32    15    16    1
    33    15    21   ar
    34    16    17    2
    35    16    18    1
    36    18    19    1
    37    19    20    1
    38    19    39    1
    39    19    40    1
    40    20    41    1
    41    20    42    1
    42    20    43    1
    43    22    23   ar
    44    22    44    1
    45    23    24    1
    46    24    45    1
    47    24    46    1
    48    24    47    1
@<TRIPOS>SUBSTRUCTURE
     1 ZINC001169875900        1 TEMP              0 ****  ****    0 ROOT


##########                                Name:    ZINC000451500596
##########                DOCK_Rotatable_Bonds:                   7
##########                         Heavy_Atoms:                  25
##########                    Molecular_Weight:             365.497
##########                DOCK_Rotatable_Bonds:                   7
##########                       Formal_Charge:           0.0400004
##########                     HBond_Acceptors:                   7
##########                        HBond_Donors:                   2
##########                         Heavy_Atoms:                  25
##########                          Grid_Score:          -33.668392
##########                     Grid_vdw_energy:          -34.089348
##########                      Grid_es_energy:            0.420954
##########           Internal_energy_repulsive:           10.120925

@<TRIPOS>MOLECULE
ZINC000451500596
 52 54 1 0 0
SMALL
USER_CHARGES


@<TRIPOS>ATOM
      1 C1         -7.5388    3.9311   57.1896 C.3     1  ZINC000451500596   -0.6700
      2 S2         -6.6034    2.3937   56.9613 S.o2    1  ZINC000451500596    2.6100
      3 O3         -5.2401    2.6771   56.6775 O.2     1  ZINC000451500596   -0.9500
      4 O4         -6.9627    1.4398   57.9514 O.2     1  ZINC000451500596   -0.9600
      5 N5         -7.1910    1.7582   55.5496 N.am    1  ZINC000451500596   -1.1200
      6 C6         -8.6118    1.4202   55.4340 C.3     1  ZINC000451500596    0.1200
      7 C7         -9.0582    1.5834   53.9796 C.3     1  ZINC000451500596   -0.1000
      8 H8         -8.8597    2.6000   53.6403 H       1  ZINC000451500596    0.0900
      9 C9        -10.5625    1.2673   53.8500 C.3     1  ZINC000451500596   -0.1200
     10 C10       -10.6826    0.5448   52.4852 C.3     1  ZINC000451500596   -0.1300
     11 C11        -9.3986   -0.3205   52.4423 C.3     1  ZINC000451500596   -0.1300
     12 C12        -8.3172    0.5747   53.0845 C.3     1  ZINC000451500596    0.1400
     13 H13        -7.6399   -0.0313   53.6863 H       1  ZINC000451500596    0.1000
     14 N14        -7.5671    1.2810   52.0429 N.am    1  ZINC000451500596   -0.7200
     15 C15        -6.5407    0.6692   51.4195 C.2     1  ZINC000451500596    0.5300
     16 O16        -6.2372   -0.4655   51.7217 O.2     1  ZINC000451500596   -0.5300
     17 C17        -5.7702    1.3950   50.3468 C.3     1  ZINC000451500596   -0.1300
     18 H18        -5.9614    0.9512   49.3698 H       1  ZINC000451500596    0.1000
     19 C19        -6.1259    2.9050   50.3424 C.3     1  ZINC000451500596   -0.1200
     20 C20        -4.8429    3.5270   49.7368 C.3     1  ZINC000451500596    0.0500
     21 N21        -3.7346    2.7204   50.2907 N.3     1  ZINC000451500596   -0.4900
     22 C22        -2.6913    2.6037   49.3695 C.ar    1  ZINC000451500596    0.0800
     23 C23        -1.4264    3.0830   49.6857 C.ar    1  ZINC000451500596   -0.0900
     24 C24        -0.3970    2.9657   48.7727 C.ar    1  ZINC000451500596   -0.1100
     25 C25        -0.6243    2.3723   47.5444 C.ar    1  ZINC000451500596   -0.1200
     26 C26        -1.8823    1.8942   47.2263 C.ar    1  ZINC000451500596   -0.1100
     27 C27        -2.9148    2.0031   48.1369 C.ar    1  ZINC000451500596   -0.1500
     28 C28        -4.2596    1.3903   50.6621 C.3     1  ZINC000451500596    0.0600
     29 H29        -7.3630    4.5927   56.3413 H       1  ZINC000451500596    0.1300
     30 H30        -8.6024    3.7026   57.2579 H       1  ZINC000451500596    0.1300
     31 H31        -7.2130    4.4220   58.1067 H       1  ZINC000451500596    0.1300
     32 H32        -6.5945    1.6098   54.7992 H       1  ZINC000451500596    0.4200
     33 H33        -8.7664    0.3878   55.7477 H       1  ZINC000451500596    0.0700
     34 H34        -9.1963    2.0847   56.0703 H       1  ZINC000451500596    0.0900
     35 H35       -10.8856    0.6115   54.6585 H       1  ZINC000451500596    0.0800
     36 H36       -11.1468    2.1874   53.8473 H       1  ZINC000451500596    0.0700
     37 H37       -11.5729   -0.0835   52.4578 H       1  ZINC000451500596    0.0700
     38 H38       -10.6910    1.2645   51.6666 H       1  ZINC000451500596    0.0700
     39 H39        -9.5337   -1.2326   53.0235 H       1  ZINC000451500596    0.0800
     40 H40        -9.1336   -0.5589   51.4124 H       1  ZINC000451500596    0.0700
     41 H41        -7.8091    2.1889   51.8021 H       1  ZINC000451500596    0.4000
     42 H42        -6.9912    3.1006   49.7089 H       1  ZINC000451500596    0.0800
     43 H43        -6.2955    3.2691   51.3557 H       1  ZINC000451500596    0.0800
     44 H44        -4.8611    3.4510   48.6496 H       1  ZINC000451500596    0.0600
     45 H45        -4.7447    4.5683   50.0436 H       1  ZINC000451500596    0.0900
     46 H46        -1.2483    3.5471   50.6446 H       1  ZINC000451500596    0.1300
     47 H47         0.5867    3.3380   49.0180 H       1  ZINC000451500596    0.1300
     48 H48         0.1823    2.2825   46.8320 H       1  ZINC000451500596    0.1200
     49 H49        -2.0565    1.4313   46.2662 H       1  ZINC000451500596    0.1200
     50 H50        -3.8970    1.6293   47.8880 H       1  ZINC000451500596    0.1200
     51 H51        -4.1059    1.2151   51.7269 H       1  ZINC000451500596    0.1000
     52 H52        -3.7568    0.6177   50.0805 H       1  ZINC000451500596    0.0700
@<TRIPOS>BOND
     1     1     2    1
     2     1    29    1
     3     1    30    1
     4     1    31    1
     5     2     3    2
     6     2     4    2
     7     2     5   am
     8     5     6    1
     9     5    32    1
    10     6     7    1
    11     6    33    1
    12     6    34    1
    13     7     8    1
    14     7    12    1
    15     7     9    1
    16     9    10    1
    17     9    35    1
    18     9    36    1
    19    10    11    1
    20    10    37    1
    21    10    38    1
    22    11    12    1
    23    11    39    1
    24    11    40    1
    25    12    13    1
    26    12    14    1
    27    14    15   am
    28    14    41    1
    29    15    16    2
    30    15    17    1
    31    17    18    1
    32    17    28    1
    33    17    19    1
    34    19    20    1
    35    19    42    1
    36    19    43    1
    37    20    21    1
    38    20    44    1
    39    20    45    1
    40    21    22    1
    41    21    28    1
    42    22    27   ar
    43    22    23   ar
    44    23    24   ar
    45    23    46    1
    46    24    25   ar
    47    24    47    1
    48    25    26   ar
    49    25    48    1
    50    26    27   ar
    51    26    49    1
    52    27    50    1
    53    28    51    1
    54    28    52    1
@<TRIPOS>SUBSTRUCTURE
     1 ZINC000451500596        1 TEMP              0 ****  ****    0 ROOT


##########                                Name:    ZINC000470948647
##########                DOCK_Rotatable_Bonds:                   6
##########                         Heavy_Atoms:                  29
##########                    Molecular_Weight:             412.556
##########                DOCK_Rotatable_Bonds:                   6
##########                       Formal_Charge:           0.0100001
##########                     HBond_Acceptors:                   7
##########                        HBond_Donors:                   1
##########                         Heavy_Atoms:                  29
##########                          Grid_Score:          -33.655930
##########                     Grid_vdw_energy:          -33.572525
##########                      Grid_es_energy:           -0.083403
##########           Internal_energy_repulsive:           16.798229

@<TRIPOS>MOLECULE
ZINC000470948647
 57 60 1 0 0
SMALL
USER_CHARGES


@<TRIPOS>ATOM
      1 C1          1.3343    4.5331   50.0385 C.3     1  ZINC000470948647   -0.1100
      2 C2         -0.0278    3.9449   50.3022 C.ar    1  ZINC000470948647   -0.1000
      3 C3         -0.5998    4.0638   51.5553 C.ar    1  ZINC000470948647   -0.1100
      4 C4         -1.8483    3.5258   51.8002 C.ar    1  ZINC000470948647   -0.1100
      5 C5         -2.5290    2.8653   50.7862 C.ar    1  ZINC000470948647    0.1400
      6 N6         -3.7940    2.3195   51.0309 N.am    1  ZINC000470948647   -0.6700
      7 C7         -4.9019    3.0065   50.6887 C.2     1  ZINC000470948647    0.5100
      8 O8         -4.8025    4.0977   50.1686 O.2     1  ZINC000470948647   -0.4800
      9 C9         -6.2644    2.4187   50.9522 C.3     1  ZINC000470948647    0.1200
     10 H10        -7.0204    3.1623   50.7003 H       1  ZINC000470948647    0.1200
     11 C11        -6.4578    1.1849   50.0416 C.3     1  ZINC000470948647   -0.0700
     12 S12        -6.0311   -0.1865   51.1949 S.3     1  ZINC000470948647   -0.2500
     13 C13        -6.6696    0.6947   52.6796 C.3     1  ZINC000470948647    0.1600
     14 N14        -6.3719    2.1035   52.3686 N.am    1  ZINC000470948647   -0.6000
     15 C15        -6.2128    3.0373   53.3274 C.2     1  ZINC000470948647    0.6300
     16 O16        -5.9691    4.1881   53.0206 O.2     1  ZINC000470948647   -0.5100
     17 C17        -6.3347    2.6624   54.7509 C.2     1  ZINC000470948647   -0.0100
     18 N18        -7.2286    1.8466   55.2734 N.2     1  ZINC000470948647   -0.2700
     19 N19        -7.0456    1.7456   56.5409 N.pl3   1  ZINC000470948647   -0.2700
     20 C20        -7.8565    0.9224   57.4416 C.3     1  ZINC000470948647    0.1500
     21 C21        -8.0731    1.6695   58.7591 C.3     1  ZINC000470948647   -0.1300
     22 C22        -8.9200    0.8098   59.6996 C.3     1  ZINC000470948647   -0.1200
     23 C23       -10.2740    0.5226   59.0476 C.3     1  ZINC000470948647   -0.1300
     24 C24       -10.0574   -0.2244   57.7301 C.3     1  ZINC000470948647   -0.1200
     25 C25        -9.2105    0.6353   56.7896 C.3     1  ZINC000470948647   -0.1300
     26 C26        -5.9983    2.5072   56.9238 C.2     1  ZINC000470948647   -0.0100
     27 C27        -5.5102    3.1057   55.8120 C.2     1  ZINC000470948647   -0.1700
     28 C28        -1.9519    2.7479   49.5283 C.ar    1  ZINC000470948647   -0.1100
     29 C29        -2.6875    2.0322   48.4248 C.3     1  ZINC000470948647   -0.1100
     30 C30        -0.7056    3.2922   49.2886 C.ar    1  ZINC000470948647   -0.1000
     31 H31         1.2256    5.5622   49.6959 H       1  ZINC000470948647    0.0700
     32 H32         1.9214    4.5160   50.9568 H       1  ZINC000470948647    0.0700
     33 H33         1.8412    3.9466   49.2722 H       1  ZINC000470948647    0.0700
     34 H34        -0.0699    4.5777   52.3436 H       1  ZINC000470948647    0.1200
     35 H35        -2.2942    3.6184   52.7795 H       1  ZINC000470948647    0.1400
     36 H36        -3.8736    1.4468   51.4468 H       1  ZINC000470948647    0.4100
     37 H37        -7.4913    1.1055   49.7042 H       1  ZINC000470948647    0.1200
     38 H38        -5.7723    1.2120   49.1947 H       1  ZINC000470948647    0.1200
     39 H39        -7.7430    0.5398   52.7891 H       1  ZINC000470948647    0.1000
     40 H40        -6.1384    0.3761   53.5765 H       1  ZINC000470948647    0.1400
     41 H41        -7.3410   -0.0177   57.6375 H       1  ZINC000470948647    0.1100
     42 H42        -7.1085    1.8741   59.2236 H       1  ZINC000470948647    0.0800
     43 H43        -8.5887    2.6097   58.5631 H       1  ZINC000470948647    0.0800
     44 H44        -8.4044   -0.1303   59.8956 H       1  ZINC000470948647    0.0700
     45 H45        -9.0743    1.3421   60.6382 H       1  ZINC000470948647    0.0800
     46 H46       -10.8773   -0.0898   59.7176 H       1  ZINC000470948647    0.0700
     47 H47       -10.7896    1.4628   58.8516 H       1  ZINC000470948647    0.0700
     48 H48        -9.5418   -1.1645   57.9260 H       1  ZINC000470948647    0.0700
     49 H49       -11.0220   -0.4289   57.2656 H       1  ZINC000470948647    0.0700
     50 H50        -9.7261    1.5755   56.5936 H       1  ZINC000470948647    0.0700
     51 H51        -9.0562    0.1031   55.8509 H       1  ZINC000470948647    0.0700
     52 H52        -5.6179    2.6148   57.9288 H       1  ZINC000470948647    0.1800
     53 H53        -4.6725    3.7844   55.7493 H       1  ZINC000470948647    0.1600
     54 H54        -3.3018    2.7457   47.8755 H       1  ZINC000470948647    0.0700
     55 H55        -1.9680    1.5742   47.7461 H       1  ZINC000470948647    0.0700
     56 H56        -3.3247    1.2594   48.8545 H       1  ZINC000470948647    0.0600
     57 H57        -0.2565    3.2015   48.3106 H       1  ZINC000470948647    0.1300
@<TRIPOS>BOND
     1     1     2    1
     2     1    31    1
     3     1    32    1
     4     1    33    1
     5     2    30   ar
     6     2     3   ar
     7     3     4   ar
     8     3    34    1
     9     4     5   ar
    10     4    35    1
    11     5     6    1
    12     5    28   ar
    13     6     7   am
    14     6    36    1
    15     7     8    2
    16     7     9    1
    17     9    10    1
    18     9    14    1
    19     9    11    1
    20    11    12    1
    21    11    37    1
    22    11    38    1
    23    12    13    1
    24    13    14    1
    25    13    39    1
    26    13    40    1
    27    14    15   am
    28    15    16    2
    29    15    17    1
    30    17    27    1
    31    17    18    2
    32    18    19    1
    33    19    20    1
    34    19    26    1
    35    20    25    1
    36    20    21    1
    37    20    41    1
    38    21    22    1
    39    21    42    1
    40    21    43    1
    41    22    23    1
    42    22    44    1
    43    22    45    1
    44    23    24    1
    45    23    46    1
    46    23    47    1
    47    24    25    1
    48    24    48    1
    49    24    49    1
    50    25    50    1
    51    25    51    1
    52    26    27    2
    53    26    52    1
    54    27    53    1
    55    28    29    1
    56    28    30   ar
    57    29    54    1
    58    29    55    1
    59    29    56    1
    60    30    57    1
@<TRIPOS>SUBSTRUCTURE
     1 ZINC000470948647        1 TEMP              0 ****  ****    0 ROOT


##########                                Name:    ZINC001328997126
##########                DOCK_Rotatable_Bonds:                   7
##########                         Heavy_Atoms:                  26
##########                    Molecular_Weight:             388.488
##########                DOCK_Rotatable_Bonds:                   7
##########                       Formal_Charge:           0.0299993
##########                     HBond_Acceptors:                  10
##########                        HBond_Donors:                   1
##########                         Heavy_Atoms:                  26
##########                          Grid_Score:          -33.632660
##########                     Grid_vdw_energy:          -32.387520
##########                      Grid_es_energy:           -1.245141
##########           Internal_energy_repulsive:            9.104480

@<TRIPOS>MOLECULE
ZINC001328997126
 54 56 1 0 0
SMALL
USER_CHARGES


@<TRIPOS>ATOM
      1 C1         -8.0888    0.6655   65.6180 C.3     1  ZINC001328997126   -0.1700
      2 C2         -9.2949    1.2981   64.9208 C.3     1  ZINC001328997126    0.1400
      3 N3         -9.4233    0.7457   63.5701 N.am    1  ZINC001328997126   -0.6300
      4 C4         -8.3148    0.2518   62.7389 C.3     1  ZINC001328997126    0.0700
      5 C5         -9.0058   -0.2064   61.4401 C.3     1  ZINC001328997126    0.0700
      6 H6         -8.8499   -1.2733   61.2802 H       1  ZINC001328997126    0.1200
      7 C7         -8.4867    0.5952   60.2448 C.3     1  ZINC001328997126    0.0500
      8 N8         -9.2881    0.2758   59.0558 N.3     1  ZINC001328997126   -0.5300
      9 C9         -9.0709   -1.1144   58.6320 C.3     1  ZINC001328997126    0.0500
     10 C10        -9.9807   -1.4305   57.4426 C.3     1  ZINC001328997126    0.0600
     11 N11        -9.6902   -0.4969   56.3454 N.3     1  ZINC001328997126   -0.5200
     12 C12       -10.4918   -0.8161   55.1564 C.3     1  ZINC001328997126    0.0400
     13 C13        -9.9961   -0.0085   53.9847 C.2     1  ZINC001328997126    0.5200
     14 O14       -10.7181    0.8187   53.4695 O.2     1  ZINC001328997126   -0.5100
     15 N15        -8.7505   -0.2055   53.5091 N.am    1  ZINC001328997126   -0.7300
     16 C16        -8.2693    0.5784   52.3689 C.3     1  ZINC001328997126    0.1600
     17 H17        -9.1133    0.8770   51.7472 H       1  ZINC001328997126    0.1100
     18 C18        -7.5320    1.8302   52.8759 C.3     1  ZINC001328997126   -0.1400
     19 C19        -6.7756    2.4229   51.6591 C.3     1  ZINC001328997126   -0.5800
     20 S20        -6.0861    0.9287   50.8519 S.o2    1  ZINC001328997126    2.4000
     21 O21        -6.2661    1.0276   49.4458 O.2     1  ZINC001328997126   -0.9300
     22 O22        -4.7958    0.6595   51.3830 O.2     1  ZINC001328997126   -0.9300
     23 C23        -7.2859   -0.2679   51.5361 C.3     1  ZINC001328997126   -0.6100
     24 C24        -9.9075    0.8934   56.7692 C.3     1  ZINC001328997126    0.0500
     25 C25        -8.9977    1.2094   57.9586 C.3     1  ZINC001328997126    0.0600
     26 O26       -10.4164    0.0744   61.6731 O.3     1  ZINC001328997126   -0.3100
     27 C27       -10.5705    0.6026   62.8924 C.2     1  ZINC001328997126    0.6400
     28 O28       -11.6510    0.9303   63.3413 O.2     1  ZINC001328997126   -0.5200
     29 H29        -8.2291   -0.4138   65.6787 H       1  ZINC001328997126    0.0600
     30 H30        -7.1850    0.8830   65.0491 H       1  ZINC001328997126    0.0600
     31 H31        -7.9933    1.0765   66.6230 H       1  ZINC001328997126    0.0700
     32 H32       -10.1988    1.0806   65.4898 H       1  ZINC001328997126    0.0900
     33 H33        -9.1547    2.3774   64.8602 H       1  ZINC001328997126    0.0900
     34 H34        -7.6046    1.0525   62.5328 H       1  ZINC001328997126    0.0900
     35 H35        -7.8168   -0.5875   63.2243 H       1  ZINC001328997126    0.0900
     36 H36        -8.5649    1.6607   60.4603 H       1  ZINC001328997126    0.0900
     37 H37        -7.4438    0.3375   60.0599 H       1  ZINC001328997126    0.0600
     38 H38        -8.0295   -1.2466   58.3385 H       1  ZINC001328997126    0.0500
     39 H39        -9.3045   -1.7869   59.4574 H       1  ZINC001328997126    0.0900
     40 H40        -9.8004   -2.4520   57.1082 H       1  ZINC001328997126    0.0800
     41 H41       -11.0229   -1.3246   57.7438 H       1  ZINC001328997126    0.0500
     42 H42       -10.3994   -1.8785   54.9305 H       1  ZINC001328997126    0.1100
     43 H43       -11.5374   -0.5749   55.3476 H       1  ZINC001328997126    0.0700
     44 H44        -8.1727   -0.8663   53.9218 H       1  ZINC001328997126    0.4100
     45 H45        -8.2490    2.5561   53.2593 H       1  ZINC001328997126    0.1100
     46 H46        -6.8240    1.5553   53.6578 H       1  ZINC001328997126    0.0900
     47 H47        -7.4635    2.9409   50.9908 H       1  ZINC001328997126    0.1400
     48 H48        -5.9774    3.0889   51.9866 H       1  ZINC001328997126    0.1400
     49 H49        -6.7769   -0.9932   52.1710 H       1  ZINC001328997126    0.1400
     50 H50        -7.8160   -0.7752   50.7302 H       1  ZINC001328997126    0.1500
     51 H51        -9.6738    1.5659   55.9439 H       1  ZINC001328997126    0.1000
     52 H52       -10.9489    1.0255   57.0627 H       1  ZINC001328997126    0.0400
     53 H53        -9.1781    2.2310   58.2931 H       1  ZINC001328997126    0.0800
     54 H54        -7.9554    1.1036   57.6575 H       1  ZINC001328997126    0.0500
@<TRIPOS>BOND
     1     1     2    1
     2     1    29    1
     3     1    30    1
     4     1    31    1
     5     2     3    1
     6     2    32    1
     7     2    33    1
     8     3    27   am
     9     3     4    1
    10     4     5    1
    11     4    34    1
    12     4    35    1
    13     5     6    1
    14     5     7    1
    15     5    26    1
    16     7     8    1
    17     7    36    1
    18     7    37    1
    19     8    25    1
    20     8     9    1
    21     9    10    1
    22     9    38    1
    23     9    39    1
    24    10    11    1
    25    10    40    1
    26    10    41    1
    27    11    12    1
    28    11    24    1
    29    12    13    1
    30    12    42    1
    31    12    43    1
    32    13    14    2
    33    13    15   am
    34    15    16    1
    35    15    44    1
    36    16    17    1
    37    16    23    1
    38    16    18    1
    39    18    19    1
    40    18    45    1
    41    18    46    1
    42    19    20    1
    43    19    47    1
    44    19    48    1
    45    20    21    2
    46    20    22    2
    47    20    23    1
    48    23    49    1
    49    23    50    1
    50    24    25    1
    51    24    51    1
    52    24    52    1
    53    25    53    1
    54    25    54    1
    55    26    27    1
    56    27    28    2
@<TRIPOS>SUBSTRUCTURE
     1 ZINC001328997126        1 TEMP              0 ****  ****    0 ROOT


##########                                Name:    ZINC000740930783
##########                DOCK_Rotatable_Bonds:                  11
##########                         Heavy_Atoms:                  27
##########                    Molecular_Weight:             413.257
##########                DOCK_Rotatable_Bonds:                  11
##########                       Formal_Charge:          -0.0100004
##########                     HBond_Acceptors:                   9
##########                        HBond_Donors:                   4
##########                         Heavy_Atoms:                  27
##########                          Grid_Score:          -33.602654
##########                     Grid_vdw_energy:          -32.331211
##########                      Grid_es_energy:           -1.271442
##########           Internal_energy_repulsive:           14.961058

@<TRIPOS>MOLECULE
ZINC000740930783
 45 46 1 0 0
SMALL
USER_CHARGES


@<TRIPOS>ATOM
      1 C1         -8.1119   -0.7102   52.6388 C.3     1  ZINC000740930783    0.0200
      2 O2         -8.2084    0.7054   52.4690 O.3     1  ZINC000740930783   -0.3000
      3 C3         -7.5611    1.4819   53.3788 C.ar    1  ZINC000740930783    0.1200
      4 C4         -7.9780    1.4959   54.6957 C.ar    1  ZINC000740930783   -0.1400
      5 C5         -7.3107    2.2943   55.6286 C.ar    1  ZINC000740930783   -0.0800
      6 C6         -7.7522    2.3123   57.0370 C.2     1  ZINC000740930783    0.5600
      7 O7         -8.2688    3.3110   57.4994 O.2     1  ZINC000740930783   -0.5300
      8 N8         -7.5826    1.2215   57.8103 N.am    1  ZINC000740930783   -0.7200
      9 C9         -8.0192    1.2399   59.2086 C.3     1  ZINC000740930783    0.0900
     10 C10        -7.9601   -0.1781   59.7801 C.3     1  ZINC000740930783    0.1400
     11 H11        -6.9239   -0.5151   59.8095 H       1  ZINC000740930783    0.1200
     12 O12        -8.7236   -1.0576   58.9521 O.3     1  ZINC000740930783   -0.5500
     13 C13        -8.5292   -0.1816   61.1755 C.ar    1  ZINC000740930783   -0.1100
     14 C14        -7.6975   -0.3824   62.2606 C.ar    1  ZINC000740930783   -0.1000
     15 C15        -8.2196   -0.3856   63.5409 C.ar    1  ZINC000740930783   -0.1100
     16 C16        -9.5736   -0.1886   63.7361 C.ar    1  ZINC000740930783   -0.1000
     17 C17       -10.4067    0.0123   62.6514 C.ar    1  ZINC000740930783   -0.1100
     18 C18        -9.8839    0.0219   61.3708 C.ar    1  ZINC000740930783   -0.0300
     19 Cl19      -10.9293    0.2742   60.0080 Cl      1  ZINC000740930783   -0.0600
     20 C20        -6.2248    3.0751   55.2256 C.ar    1  ZINC000740930783   -0.1000
     21 C21        -5.8134    3.0567   53.9092 C.ar    1  ZINC000740930783   -0.0200
     22 Cl22       -4.4634    4.0272   53.4100 Cl      1  ZINC000740930783   -0.0300
     23 C23        -6.4736    2.2591   52.9836 C.ar    1  ZINC000740930783    0.0900
     24 O24        -6.0650    2.2440   51.6884 O.3     1  ZINC000740930783   -0.2900
     25 C25        -5.0480    1.3027   51.3397 C.3     1  ZINC000740930783    0.0400
     26 C26        -4.8091    1.3490   49.8525 C.2     1  ZINC000740930783    0.5200
     27 N27        -5.1939    2.4273   49.1413 N.am    1  ZINC000740930783   -0.8500
     28 O28        -4.2705    0.4160   49.2955 O.2     1  ZINC000740930783   -0.5100
     29 H29        -7.0656   -1.0116   52.5894 H       1  ZINC000740930783    0.0600
     30 H30        -8.5249   -0.9889   53.6083 H       1  ZINC000740930783    0.0600
     31 H31        -8.6717   -1.2099   51.8482 H       1  ZINC000740930783    0.1100
     32 H32        -8.8182    0.8913   55.0037 H       1  ZINC000740930783    0.1600
     33 H33        -7.1715    0.4243   57.4410 H       1  ZINC000740930783    0.4100
     34 H34        -7.3631    1.8918   59.7855 H       1  ZINC000740930783    0.0900
     35 H35        -9.0421    1.6120   59.2649 H       1  ZINC000740930783    0.0800
     36 H36        -8.4097   -1.1095   58.0389 H       1  ZINC000740930783    0.3800
     37 H37        -6.6396   -0.5371   62.1086 H       1  ZINC000740930783    0.1300
     38 H38        -7.5692   -0.5426   64.3887 H       1  ZINC000740930783    0.1300
     39 H39        -9.9810   -0.1919   64.7364 H       1  ZINC000740930783    0.1400
     40 H40       -11.4646    0.1663   62.8042 H       1  ZINC000740930783    0.1400
     41 H41        -5.7077    3.6932   55.9446 H       1  ZINC000740930783    0.1500
     42 H42        -4.1257    1.5534   51.8638 H       1  ZINC000740930783    0.0900
     43 H43        -5.3672    0.3004   51.6254 H       1  ZINC000740930783    0.0900
     44 H44        -5.0391    2.4577   48.1843 H       1  ZINC000740930783    0.4000
     45 H45        -5.6259    3.1731   49.5867 H       1  ZINC000740930783    0.4100
@<TRIPOS>BOND
     1     1     2    1
     2     1    29    1
     3     1    30    1
     4     1    31    1
     5     2     3    1
     6     3    23   ar
     7     3     4   ar
     8     4     5   ar
     9     4    32    1
    10     5     6    1
    11     5    20   ar
    12     6     7    2
    13     6     8   am
    14     8     9    1
    15     8    33    1
    16     9    10    1
    17     9    34    1
    18     9    35    1
    19    10    11    1
    20    10    12    1
    21    10    13    1
    22    12    36    1
    23    13    18   ar
    24    13    14   ar
    25    14    15   ar
    26    14    37    1
    27    15    16   ar
    28    15    38    1
    29    16    17   ar
    30    16    39    1
    31    17    18   ar
    32    17    40    1
    33    18    19    1
    34    20    21   ar
    35    20    41    1
    36    21    22    1
    37    21    23   ar
    38    23    24    1
    39    24    25    1
    40    25    26    1
    41    25    42    1
    42    25    43    1
    43    26    27   am
    44    26    28    2
    45    27    44    1
    46    27    45    1
@<TRIPOS>SUBSTRUCTURE
     1 ZINC000740930783        1 TEMP              0 ****  ****    0 ROOT


##########                                Name:    ZINC000489986384
##########                DOCK_Rotatable_Bonds:                  11
##########                         Heavy_Atoms:                  31
##########                    Molecular_Weight:             415.492
##########                DOCK_Rotatable_Bonds:                  11
##########                       Formal_Charge:          -0.0499997
##########                     HBond_Acceptors:                   6
##########                        HBond_Donors:                   2
##########                         Heavy_Atoms:                  31
##########                          Grid_Score:          -33.588402
##########                     Grid_vdw_energy:          -32.776527
##########                      Grid_es_energy:           -0.811876
##########           Internal_energy_repulsive:           12.467521

@<TRIPOS>MOLECULE
ZINC000489986384
 56 59 1 0 0
SMALL
USER_CHARGES


@<TRIPOS>ATOM
      1 O1         -1.9819    2.5801   52.7982 O.2     1  ZINC000489986384   -0.5000
      2 C2         -2.8018    3.4351   53.0587 C.2     1  ZINC000489986384    0.4900
      3 C3         -3.8038    3.8605   52.0165 C.3     1  ZINC000489986384    0.0900
      4 N4         -4.1570    2.7106   51.1804 N.pl3   1  ZINC000489986384   -0.4700
      5 C5         -5.2226    1.8544   51.3745 C.ar    1  ZINC000489986384    0.0700
      6 C6         -6.2358    1.7708   52.3193 C.ar    1  ZINC000489986384   -0.1100
      7 C7         -7.1737    0.7641   52.2277 C.ar    1  ZINC000489986384   -0.0900
      8 C8         -7.1104   -0.1644   51.1987 C.ar    1  ZINC000489986384   -0.1300
      9 C9         -6.1198   -0.0979   50.2600 C.ar    1  ZINC000489986384   -0.0600
     10 C10        -5.1591    0.9139   50.3321 C.ar    1  ZINC000489986384    0.0500
     11 N11        -4.0811    1.2377   49.5726 N.2     1  ZINC000489986384   -0.4600
     12 C12        -3.4995    2.2919   50.0655 C.2     1  ZINC000489986384    0.2800
     13 C13        -2.2697    2.9471   49.4916 C.3     1  ZINC000489986384    0.1400
     14 O14        -2.0722    2.4968   48.1499 O.3     1  ZINC000489986384   -0.3000
     15 C15        -0.7881    2.3239   47.7398 C.ar    1  ZINC000489986384    0.1300
     16 C16         0.2080    3.1736   48.1982 C.ar    1  ZINC000489986384   -0.2100
     17 C17         1.5127    2.9954   47.7802 C.ar    1  ZINC000489986384   -0.0800
     18 C18         1.8258    1.9717   46.9052 C.ar    1  ZINC000489986384   -0.1600
     19 C19         0.8347    1.1238   46.4465 C.ar    1  ZINC000489986384   -0.0800
     20 C20        -0.4704    1.2940   46.8663 C.ar    1  ZINC000489986384   -0.1500
     21 N21        -2.8205    4.0006   54.2819 N.am    1  ZINC000489986384   -0.7300
     22 C22        -1.8465    3.5870   55.2950 C.3     1  ZINC000489986384    0.1300
     23 C23        -0.7903    4.6810   55.4636 C.3     1  ZINC000489986384   -0.0600
     24 H24        -0.5554    5.1125   54.4905 H       1  ZINC000489986384    0.0900
     25 C25        -1.3306    5.7733   56.3887 C.3     1  ZINC000489986384    0.0800
     26 O26        -2.2137    6.6246   55.6557 O.3     1  ZINC000489986384   -0.5700
     27 C27         0.4576    4.0863   56.0638 C.ar    1  ZINC000489986384   -0.0700
     28 C28         0.3614    3.0430   56.9655 C.ar    1  ZINC000489986384   -0.1100
     29 C29         1.5061    2.4975   57.5161 C.ar    1  ZINC000489986384   -0.1200
     30 C30         2.7469    2.9951   57.1646 C.ar    1  ZINC000489986384   -0.1200
     31 C31         2.8432    4.0378   56.2622 C.ar    1  ZINC000489986384   -0.1200
     32 C32         1.6988    4.5805   55.7083 C.ar    1  ZINC000489986384   -0.1100
     33 H33        -4.6993    4.2415   52.5075 H       1  ZINC000489986384    0.1200
     34 H34        -3.3702    4.6430   51.3936 H       1  ZINC000489986384    0.1200
     35 H35        -6.2893    2.4906   53.1226 H       1  ZINC000489986384    0.1200
     36 H36        -7.9627    0.6977   52.9621 H       1  ZINC000489986384    0.1300
     37 H37        -7.8514   -0.9479   51.1394 H       1  ZINC000489986384    0.1300
     38 H38        -6.0794   -0.8263   49.4636 H       1  ZINC000489986384    0.1300
     39 H39        -2.3987    4.0294   49.4965 H       1  ZINC000489986384    0.0800
     40 H40        -1.4015    2.6820   50.0952 H       1  ZINC000489986384    0.1000
     41 H41        -0.0362    3.9738   48.8811 H       1  ZINC000489986384    0.1300
     42 H42         2.2886    3.6566   48.1368 H       1  ZINC000489986384    0.1300
     43 H43         2.8463    1.8343   46.5794 H       1  ZINC000489986384    0.1200
     44 H44         1.0818    0.3250   45.7629 H       1  ZINC000489986384    0.1300
     45 H45        -1.2442    0.6313   46.5077 H       1  ZINC000489986384    0.1300
     46 H46        -3.4788    4.6816   54.4913 H       1  ZINC000489986384    0.4000
     47 H47        -2.3564    3.4249   56.2445 H       1  ZINC000489986384    0.0800
     48 H48        -1.3641    2.6620   54.9790 H       1  ZINC000489986384    0.0800
     49 H49        -1.8720    5.3140   57.2158 H       1  ZINC000489986384    0.0500
     50 H50        -0.5005    6.3614   56.7800 H       1  ZINC000489986384    0.0500
     51 H51        -2.9799    6.1681   55.2817 H       1  ZINC000489986384    0.3800
     52 H52        -0.6081    2.6543   57.2401 H       1  ZINC000489986384    0.1200
     53 H53         1.4308    1.6828   58.2211 H       1  ZINC000489986384    0.1200
     54 H54         3.6412    2.5693   57.5952 H       1  ZINC000489986384    0.1200
     55 H55         3.8126    4.4267   55.9878 H       1  ZINC000489986384    0.1200
     56 H56         1.7740    5.3951   55.0033 H       1  ZINC000489986384    0.1200
@<TRIPOS>BOND
     1     1     2    2
     2     2     3    1
     3     2    21   am
     4     3     4    1
     5     3    33    1
     6     3    34    1
     7     4    12    1
     8     4     5    1
     9     5    10   ar
    10     5     6   ar
    11     6     7   ar
    12     6    35    1
    13     7     8   ar
    14     7    36    1
    15     8     9   ar
    16     8    37    1
    17     9    10   ar
    18     9    38    1
    19    10    11    1
    20    11    12    2
    21    12    13    1
    22    13    14    1
    23    13    39    1
    24    13    40    1
    25    14    15    1
    26    15    20   ar
    27    15    16   ar
    28    16    17   ar
    29    16    41    1
    30    17    18   ar
    31    17    42    1
    32    18    19   ar
    33    18    43    1
    34    19    20   ar
    35    19    44    1
    36    20    45    1
    37    21    22    1
    38    21    46    1
    39    22    23    1
    40    22    47    1
    41    22    48    1
    42    23    24    1
    43    23    25    1
    44    23    27    1
    45    25    26    1
    46    25    49    1
    47    25    50    1
    48    26    51    1
    49    27    32   ar
    50    27    28   ar
    51    28    29   ar
    52    28    52    1
    53    29    30   ar
    54    29    53    1
    55    30    31   ar
    56    30    54    1
    57    31    32   ar
    58    31    55    1
    59    32    56    1
@<TRIPOS>SUBSTRUCTURE
     1 ZINC000489986384        1 TEMP              0 ****  ****    0 ROOT


##########                                Name:    ZINC001220212140
##########                DOCK_Rotatable_Bonds:                   6
##########                         Heavy_Atoms:                  28
##########                    Molecular_Weight:             379.459
##########                DOCK_Rotatable_Bonds:                   6
##########                       Formal_Charge:         -0.00999925
##########                     HBond_Acceptors:                   6
##########                        HBond_Donors:                   1
##########                         Heavy_Atoms:                  28
##########                          Grid_Score:          -33.532890
##########                     Grid_vdw_energy:          -33.375809
##########                      Grid_es_energy:           -0.157080
##########           Internal_energy_repulsive:           15.393970

@<TRIPOS>MOLECULE
ZINC001220212140
 53 56 1 0 0
SMALL
USER_CHARGES


@<TRIPOS>ATOM
      1 C1         -4.3756    2.3921   50.5710 C.3     1  ZINC001220212140   -0.1700
      2 C2         -5.4534    1.6038   49.8242 C.3     1  ZINC001220212140    0.0800
      3 H3         -5.1571    1.4327   48.7893 H       1  ZINC001220212140    0.1200
      4 C4         -5.7464    0.2635   50.5390 C.3     1  ZINC001220212140   -0.1100
      5 C5         -6.9063    0.6367   51.4421 C.ar    1  ZINC001220212140   -0.1500
      6 C6         -7.4688    0.0075   52.5295 C.ar    1  ZINC001220212140   -0.0700
      7 C7         -8.5440    0.5912   53.1886 C.ar    1  ZINC001220212140    0.1400
      8 N8         -9.1206   -0.0444   54.2966 N.am    1  ZINC001220212140   -0.6800
      9 C9         -8.9080    0.4385   55.5367 C.2     1  ZINC001220212140    0.7200
     10 O10        -8.2160    1.4258   55.6943 O.2     1  ZINC001220212140   -0.5700
     11 N11        -9.4625   -0.1727   56.6022 N.am    1  ZINC001220212140   -0.6300
     12 C12       -10.3166   -1.3686   56.5556 C.3     1  ZINC001220212140    0.0900
     13 C13       -10.6921   -1.7204   58.0104 C.3     1  ZINC001220212140   -0.1100
     14 C14        -9.5679   -1.0385   58.8342 C.3     1  ZINC001220212140   -0.1300
     15 H15        -8.6758   -1.6637   58.8701 H       1  ZINC001220212140    0.1200
     16 C16       -10.0445   -0.7021   60.2238 C.2     1  ZINC001220212140    0.5300
     17 O17       -11.2125   -0.8485   60.5162 O.2     1  ZINC001220212140   -0.5100
     18 N18        -9.1730   -0.2388   61.1414 N.am    1  ZINC001220212140   -0.5700
     19 C19        -7.7623   -0.0620   60.7881 C.3     1  ZINC001220212140    0.0700
     20 C20        -9.6156    0.0735   62.4315 C.ar    1  ZINC001220212140    0.1400
     21 C21        -8.9916   -0.4903   63.5367 C.ar    1  ZINC001220212140   -0.1100
     22 C22        -9.4309   -0.1800   64.8089 C.ar    1  ZINC001220212140   -0.1100
     23 C23       -10.4910    0.6908   64.9826 C.ar    1  ZINC001220212140   -0.1200
     24 C24       -11.1146    1.2534   63.8842 C.ar    1  ZINC001220212140   -0.1100
     25 C25       -10.6760    0.9524   62.6097 C.ar    1  ZINC001220212140   -0.1200
     26 C26        -9.3080    0.2433   58.0081 C.3     1  ZINC001220212140    0.1400
     27 C27        -9.0431    1.8076   52.7435 C.ar    1  ZINC001220212140   -0.1100
     28 C28        -8.4790    2.4330   51.6515 C.ar    1  ZINC001220212140   -0.1200
     29 C29        -7.4038    1.8507   50.9853 C.ar    1  ZINC001220212140    0.0900
     30 O30        -6.7177    2.2854   49.8860 O.3     1  ZINC001220212140   -0.3000
     31 H31        -4.6967    2.5628   51.5986 H       1  ZINC001220212140    0.0600
     32 H32        -3.4448    1.8250   50.5707 H       1  ZINC001220212140    0.0800
     33 H33        -4.2175    3.3502   50.0759 H       1  ZINC001220212140    0.0700
     34 H34        -6.0414   -0.5034   49.8230 H       1  ZINC001220212140    0.0900
     35 H35        -4.8864   -0.0620   51.1242 H       1  ZINC001220212140    0.0900
     36 H36        -7.0749   -0.9386   52.8702 H       1  ZINC001220212140    0.1400
     37 H37        -9.6728   -0.8320   54.1710 H       1  ZINC001220212140    0.4100
     38 H38       -11.2183   -1.1579   55.9805 H       1  ZINC001220212140    0.0700
     39 H39        -9.7707   -2.1964   56.1030 H       1  ZINC001220212140    0.0700
     40 H40       -11.6660   -1.3045   58.2688 H       1  ZINC001220212140    0.1000
     41 H41       -10.6803   -2.7998   58.1616 H       1  ZINC001220212140    0.0900
     42 H42        -7.6082    0.9449   60.4002 H       1  ZINC001220212140    0.0700
     43 H43        -7.1447   -0.2083   61.6742 H       1  ZINC001220212140    0.0800
     44 H44        -7.4842   -0.7910   60.0270 H       1  ZINC001220212140    0.0800
     45 H45        -8.1641   -1.1709   63.4016 H       1  ZINC001220212140    0.1200
     46 H46        -8.9460   -0.6181   65.6687 H       1  ZINC001220212140    0.1300
     47 H47       -10.8329    0.9315   65.9784 H       1  ZINC001220212140    0.1300
     48 H48       -11.9428    1.9325   64.0233 H       1  ZINC001220212140    0.1300
     49 H49       -11.1634    1.3921   61.7523 H       1  ZINC001220212140    0.1200
     50 H50        -8.2988    0.6132   58.1892 H       1  ZINC001220212140    0.0900
     51 H51       -10.0435    1.0091   58.2546 H       1  ZINC001220212140    0.0700
     52 H52        -9.8771    2.2658   53.2543 H       1  ZINC001220212140    0.1300
     53 H53        -8.8731    3.3793   51.3113 H       1  ZINC001220212140    0.1300
@<TRIPOS>BOND
     1     1     2    1
     2     1    31    1
     3     1    32    1
     4     1    33    1
     5     2     3    1
     6     2    30    1
     7     2     4    1
     8     4     5    1
     9     4    34    1
    10     4    35    1
    11     5    29   ar
    12     5     6   ar
    13     6     7   ar
    14     6    36    1
    15     7     8    1
    16     7    27   ar
    17     8     9   am
    18     8    37    1
    19     9    10    2
    20     9    11   am
    21    11    26    1
    22    11    12    1
    23    12    13    1
    24    12    38    1
    25    12    39    1
    26    13    14    1
    27    13    40    1
    28    13    41    1
    29    14    15    1
    30    14    16    1
    31    14    26    1
    32    16    17    2
    33    16    18   am
    34    18    19    1
    35    18    20    1
    36    19    42    1
    37    19    43    1
    38    19    44    1
    39    20    25   ar
    40    20    21   ar
    41    21    22   ar
    42    21    45    1
    43    22    23   ar
    44    22    46    1
    45    23    24   ar
    46    23    47    1
    47    24    25   ar
    48    24    48    1
    49    25    49    1
    50    26    50    1
    51    26    51    1
    52    27    28   ar
    53    27    52    1
    54    28    29   ar
    55    28    53    1
    56    29    30    1
@<TRIPOS>SUBSTRUCTURE
     1 ZINC001220212140        1 TEMP              0 ****  ****    0 ROOT


##########                                Name:    ZINC001411334959
##########                DOCK_Rotatable_Bonds:                   9
##########                         Heavy_Atoms:                  24
##########                    Molecular_Weight:              339.37
##########                DOCK_Rotatable_Bonds:                   9
##########                       Formal_Charge:           0.0199995
##########                     HBond_Acceptors:                   9
##########                        HBond_Donors:                   3
##########                         Heavy_Atoms:                  24
##########                          Grid_Score:          -33.521332
##########                     Grid_vdw_energy:          -33.193455
##########                      Grid_es_energy:           -0.327879
##########           Internal_energy_repulsive:            8.107910

@<TRIPOS>MOLECULE
ZINC001411334959
 46 48 1 0 0
SMALL
USER_CHARGES


@<TRIPOS>ATOM
      1 O1        -11.2354   -0.3963   55.5960 O.2     1  ZINC001411334959   -0.5400
      2 C2        -10.1703   -0.1853   56.1364 C.2     1  ZINC001411334959    0.5200
      3 C3         -9.9617   -0.5880   57.5736 C.3     1  ZINC001411334959   -0.1400
      4 C4         -9.0280    0.4151   58.2539 C.3     1  ZINC001411334959   -0.0100
      5 C5         -8.8934    0.0660   59.7137 C.2     1  ZINC001411334959    0.0100
      6 N6         -7.8340    0.2315   60.4728 N.2     1  ZINC001411334959   -0.2800
      7 N7         -8.1066   -0.1855   61.6584 N.pl3   1  ZINC001411334959   -0.2500
      8 N8         -9.3133   -0.6254   61.7208 N.2     1  ZINC001411334959   -0.2800
      9 C9         -9.8714   -0.4943   60.5386 C.2     1  ZINC001411334959   -0.0200
     10 N10        -9.1714    0.4042   55.4500 N.am    1  ZINC001411334959   -0.7200
     11 C11        -9.3742    0.7957   54.0530 C.3     1  ZINC001411334959    0.1200
     12 C12        -8.1609    1.5059   53.4298 C.3     1  ZINC001411334959   -0.1400
     13 C13        -8.4480    0.7037   52.1496 C.3     1  ZINC001411334959   -0.1200
     14 C14        -7.1867    0.1907   51.4519 C.3     1  ZINC001411334959    0.1300
     15 N15        -6.3867    1.3282   50.9912 N.am    1  ZINC001411334959   -0.7200
     16 C16        -5.3629    1.1302   50.1373 C.2     1  ZINC001411334959    0.5100
     17 O17        -5.1047    0.0105   49.7493 O.2     1  ZINC001411334959   -0.5100
     18 C18        -4.5388    2.3001   49.6646 C.3     1  ZINC001411334959    0.0700
     19 F19        -5.3627    3.3353   49.2099 F       1  ZINC001411334959   -0.1800
     20 C20        -3.5888    2.7969   50.7883 C.3     1  ZINC001411334959   -0.1600
     21 C21        -2.4338    3.4017   49.9509 C.3     1  ZINC001411334959    0.0500
     22 O22        -2.3066    2.5391   48.8094 O.3     1  ZINC001411334959   -0.3700
     23 C23        -3.5463    1.8646   48.5652 C.3     1  ZINC001411334959    0.0400
     24 C24        -9.1225   -0.3436   53.0512 C.3     1  ZINC001411334959   -0.1400
     25 H25       -10.9213   -0.5996   58.0907 H       1  ZINC001411334959    0.1000
     26 H26        -9.5166   -1.5822   57.6115 H       1  ZINC001411334959    0.1000
     27 H27        -8.0473    0.3781   57.7795 H       1  ZINC001411334959    0.1000
     28 H28        -9.4408    1.4193   58.1570 H       1  ZINC001411334959    0.0900
     29 H29        -7.4863   -0.1704   62.4040 H       1  ZINC001411334959    0.4700
     30 H30       -10.8778   -0.7698   60.2601 H       1  ZINC001411334959    0.2000
     31 H31        -8.3183    0.5693   55.8811 H       1  ZINC001411334959    0.4000
     32 H32       -10.3174    1.3179   53.8922 H       1  ZINC001411334959    0.1200
     33 H33        -8.2974    2.5808   53.3114 H       1  ZINC001411334959    0.0800
     34 H34        -7.2135    1.2482   53.9032 H       1  ZINC001411334959    0.0900
     35 H35        -9.1362    1.2024   51.4671 H       1  ZINC001411334959    0.1000
     36 H36        -6.6011   -0.4053   52.1519 H       1  ZINC001411334959    0.0800
     37 H37        -7.4687   -0.4249   50.5978 H       1  ZINC001411334959    0.0800
     38 H38        -6.5938    2.2240   51.3005 H       1  ZINC001411334959    0.4100
     39 H39        -4.0702    3.5587   51.4014 H       1  ZINC001411334959    0.1000
     40 H40        -3.2370    1.9668   51.4008 H       1  ZINC001411334959    0.1100
     41 H41        -2.6860    4.4138   49.6341 H       1  ZINC001411334959    0.0700
     42 H42        -1.5092    3.4045   50.5281 H       1  ZINC001411334959    0.1000
     43 H43        -3.3954    0.7859   48.6096 H       1  ZINC001411334959    0.0900
     44 H44        -3.9332    2.1450   47.5856 H       1  ZINC001411334959    0.0900
     45 H45        -8.4380   -1.1070   53.4212 H       1  ZINC001411334959    0.0900
     46 H46       -10.0353   -0.7619   52.6272 H       1  ZINC001411334959    0.0800
@<TRIPOS>BOND
     1     1     2    2
     2     2     3    1
     3     2    10   am
     4     3     4    1
     5     3    25    1
     6     3    26    1
     7     4     5    1
     8     4    27    1
     9     4    28    1
    10     5     9    1
    11     5     6    2
    12     6     7    1
    13     7     8    1
    14     7    29    1
    15     8     9    2
    16     9    30    1
    17    10    11    1
    18    10    31    1
    19    11    24    1
    20    11    12    1
    21    11    32    1
    22    12    13    1
    23    12    33    1
    24    12    34    1
    25    13    14    1
    26    13    24    1
    27    13    35    1
    28    14    15    1
    29    14    36    1
    30    14    37    1
    31    15    16   am
    32    15    38    1
    33    16    17    2
    34    16    18    1
    35    18    23    1
    36    18    19    1
    37    18    20    1
    38    20    21    1
    39    20    39    1
    40    20    40    1
    41    21    22    1
    42    21    41    1
    43    21    42    1
    44    22    23    1
    45    23    43    1
    46    23    44    1
    47    24    45    1
    48    24    46    1
@<TRIPOS>SUBSTRUCTURE
     1 ZINC001411334959        1 TEMP              0 ****  ****    0 ROOT


##########                                Name:    ZINC000033150761
##########                DOCK_Rotatable_Bonds:                   7
##########                         Heavy_Atoms:                  29
##########                    Molecular_Weight:             413.407
##########                DOCK_Rotatable_Bonds:                   7
##########                       Formal_Charge:          0.00999993
##########                     HBond_Acceptors:                  10
##########                        HBond_Donors:                   1
##########                         Heavy_Atoms:                  29
##########                          Grid_Score:          -33.516216
##########                     Grid_vdw_energy:          -34.442970
##########                      Grid_es_energy:            0.926753
##########           Internal_energy_repulsive:            4.166586

@<TRIPOS>MOLECULE
ZINC000033150761
 42 45 1 0 0
SMALL
USER_CHARGES


@<TRIPOS>ATOM
      1 O1         -8.5721    2.1774   56.3151 O.2     1  ZINC000033150761   -0.5000
      2 C2         -8.9385    1.0223   56.3627 C.2     1  ZINC000033150761    0.5200
      3 C3         -9.1242    0.3450   57.6960 C.3     1  ZINC000033150761   -0.1300
      4 C4         -8.4883    1.1989   58.7949 C.3     1  ZINC000033150761   -0.0100
      5 C5         -8.7767    0.5833   60.1398 C.2     1  ZINC000033150761    0.1800
      6 N6         -8.1770    0.8655   61.2693 N.2     1  ZINC000033150761   -0.4400
      7 C7         -8.7610    0.0752   62.1979 C.2     1  ZINC000033150761    0.2200
      8 C8         -8.4300    0.0224   63.6444 C.ar    1  ZINC000033150761    0.1900
      9 C9         -7.4763    0.8919   64.1664 C.ar    1  ZINC000033150761   -0.1300
     10 C10        -7.1779    0.8311   65.5176 C.ar    1  ZINC000033150761   -0.0700
     11 C11        -7.8447   -0.0987   66.3013 C.ar    1  ZINC000033150761   -0.1500
     12 C12        -8.7813   -0.9321   65.7159 C.ar    1  ZINC000033150761    0.1100
     13 N13        -9.0495   -0.8492   64.4293 N.ar    1  ZINC000033150761   -0.4500
     14 N14        -9.6719   -0.6336   61.5841 N.2     1  ZINC000033150761   -0.3600
     15 O15        -9.6968   -0.3494   60.4052 O.3     1  ZINC000033150761    0.0900
     16 N16        -9.1850    0.3459   55.2232 N.am    1  ZINC000033150761   -0.6200
     17 C17        -9.0137    0.9704   53.9938 C.2     1  ZINC000033150761    0.2700
     18 N18        -7.9461    0.9025   53.2611 N.2     1  ZINC000033150761   -0.5000
     19 C19        -7.9607    1.5652   52.1131 C.2     1  ZINC000033150761    0.1200
     20 C20        -6.8040    1.5680   51.1845 C.ar    1  ZINC000033150761    0.0000
     21 C21        -6.3057    0.3661   50.6856 C.ar    1  ZINC000033150761   -0.0800
     22 C22        -5.2295    0.3722   49.8213 C.ar    1  ZINC000033150761   -0.1200
     23 C23        -4.6440    1.5703   49.4490 C.ar    1  ZINC000033150761    0.0700
     24 F24        -3.5909    1.5713   48.6028 F       1  ZINC000033150761   -0.1300
     25 C25        -5.1364    2.7704   49.9423 C.ar    1  ZINC000033150761    0.0700
     26 F26        -4.5622    3.9371   49.5758 F       1  ZINC000033150761   -0.1300
     27 C27        -6.2162    2.7733   50.8039 C.ar    1  ZINC000033150761   -0.1000
     28 C28        -9.0968    2.2346   51.8483 C.2     1  ZINC000033150761   -0.2800
     29 S29       -10.2153    1.9714   53.1844 S.3     1  ZINC000033150761    0.2200
     30 H30       -10.1888    0.2266   57.8984 H       1  ZINC000033150761    0.1200
     31 H31        -8.6472   -0.6348   57.6755 H       1  ZINC000033150761    0.1200
     32 H32        -7.4103    1.2458   58.6403 H       1  ZINC000033150761    0.1300
     33 H33        -8.9045    2.2057   58.7592 H       1  ZINC000033150761    0.1200
     34 H34        -6.9759    1.6036   63.5266 H       1  ZINC000033150761    0.1400
     35 H35        -6.4424    1.4925   65.9510 H       1  ZINC000033150761    0.1500
     36 H36        -7.6348   -0.1718   67.3583 H       1  ZINC000033150761    0.1400
     37 H37        -9.3025   -1.6574   66.3230 H       1  ZINC000033150761    0.1700
     38 H38        -9.4818   -0.5767   55.2615 H       1  ZINC000033150761    0.4300
     39 H39        -6.7608   -0.5695   50.9753 H       1  ZINC000033150761    0.1400
     40 H40        -4.8431   -0.5594   49.4351 H       1  ZINC000033150761    0.1500
     41 H41        -6.5996    3.7072   51.1879 H       1  ZINC000033150761    0.1600
     42 H42        -9.2917    2.8272   50.9668 H       1  ZINC000033150761    0.1800
@<TRIPOS>BOND
     1     1     2    2
     2     2     3    1
     3     2    16   am
     4     3     4    1
     5     3    30    1
     6     3    31    1
     7     4     5    1
     8     4    32    1
     9     4    33    1
    10     5    15    1
    11     5     6    2
    12     6     7    1
    13     7     8    1
    14     7    14    2
    15     8    13   ar
    16     8     9   ar
    17     9    10   ar
    18     9    34    1
    19    10    11   ar
    20    10    35    1
    21    11    12   ar
    22    11    36    1
    23    12    13   ar
    24    12    37    1
    25    14    15    1
    26    16    17    1
    27    16    38    1
    28    17    29    1
    29    17    18    2
    30    18    19    1
    31    19    20    1
    32    19    28    2
    33    20    27   ar
    34    20    21   ar
    35    21    22   ar
    36    21    39    1
    37    22    23   ar
    38    22    40    1
    39    23    24    1
    40    23    25   ar
    41    25    26    1
    42    25    27   ar
    43    27    41    1
    44    28    29    1
    45    28    42    1
@<TRIPOS>SUBSTRUCTURE
     1 ZINC000033150761        1 TEMP              0 ****  ****    0 ROOT


##########                                Name:    ZINC000486710336
##########                DOCK_Rotatable_Bonds:                   6
##########                         Heavy_Atoms:                  31
##########                    Molecular_Weight:             420.555
##########                DOCK_Rotatable_Bonds:                   6
##########                       Formal_Charge:         1.49012e-07
##########                     HBond_Acceptors:                   6
##########                        HBond_Donors:                   1
##########                         Heavy_Atoms:                  31
##########                          Grid_Score:          -33.510963
##########                     Grid_vdw_energy:          -31.174824
##########                      Grid_es_energy:           -2.336138
##########           Internal_energy_repulsive:           64.855347

@<TRIPOS>MOLECULE
ZINC000486710336
 63 67 1 0 0
SMALL
USER_CHARGES


@<TRIPOS>ATOM
      1 C1         -5.2311    2.7988   56.5968 C.3     1  ZINC000486710336    0.1000
      2 N2         -6.5038    2.1088   56.8211 N.pl3   1  ZINC000486710336   -0.3900
      3 N3         -6.9157    1.5048   58.0160 N.2     1  ZINC000486710336   -0.2800
      4 C4         -8.1062    0.9940   57.8322 C.2     1  ZINC000486710336    0.1000
      5 C5         -8.9161    0.2533   58.8650 C.3     1  ZINC000486710336   -0.0100
      6 C6         -7.9916   -0.3319   59.9612 C.3     1  ZINC000486710336   -0.1200
      7 C7         -8.9493   -0.4877   61.1686 C.3     1  ZINC000486710336   -0.1200
      8 C8         -9.8594    0.7556   61.0925 C.3     1  ZINC000486710336   -0.1200
      9 C9         -9.8382    1.2267   59.6277 C.3     1  ZINC000486710336   -0.1100
     10 C10        -8.4995    1.2511   56.5167 C.2     1  ZINC000486710336   -0.2600
     11 C11        -7.4975    1.9457   55.9093 C.2     1  ZINC000486710336    0.3000
     12 N12        -7.4899    2.3987   54.5931 N.am    1  ZINC000486710336   -0.6200
     13 C13        -7.8646    1.5747   53.5946 C.2     1  ZINC000486710336    0.5100
     14 O14        -8.2073    0.4369   53.8429 O.2     1  ZINC000486710336   -0.4800
     15 C15        -7.8582    2.0611   52.1831 C.2     1  ZINC000486710336    0.5300
     16 O16        -8.9066    2.2685   51.6079 O.2     1  ZINC000486710336   -0.5100
     17 N17        -6.6882    2.2698   51.5475 N.am    1  ZINC000486710336   -0.5800
     18 C18        -5.3440    2.0578   52.1141 C.3     1  ZINC000486710336    0.1000
     19 C19        -4.3226    2.4643   51.0288 C.3     1  ZINC000486710336   -0.0600
     20 H20        -3.9931    1.5932   50.4623 H       1  ZINC000486710336    0.1000
     21 C21        -3.1450    3.1765   51.6430 C.ar    1  ZINC000486710336   -0.0700
     22 C22        -1.8947    3.0724   51.0627 C.ar    1  ZINC000486710336   -0.1100
     23 C23        -0.8147    3.7257   51.6261 C.ar    1  ZINC000486710336   -0.1200
     24 C24        -0.9849    4.4833   52.7696 C.ar    1  ZINC000486710336   -0.1200
     25 C25        -2.2353    4.5881   53.3496 C.ar    1  ZINC000486710336   -0.1200
     26 C26        -3.3163    3.9384   52.7837 C.ar    1  ZINC000486710336   -0.1100
     27 C27        -5.1493    3.4308   50.1262 C.3     1  ZINC000486710336   -0.0800
     28 H28        -4.7520    3.5061   49.1140 H       1  ZINC000486710336    0.1100
     29 C29        -5.1778    4.7818   50.8440 C.3     1  ZINC000486710336   -0.1100
     30 C30        -6.2825    5.6704   50.2774 C.3     1  ZINC000486710336   -0.1200
     31 C31        -7.6332    4.9876   50.5180 C.3     1  ZINC000486710336   -0.1100
     32 C32        -7.6532    3.6698   49.7433 C.3     1  ZINC000486710336   -0.1400
     33 C33        -6.5281    2.7416   50.1695 C.3     1  ZINC000486710336    0.1400
     34 H34        -6.5272    1.8723   49.5119 H       1  ZINC000486710336    0.0800
     35 H35        -5.3410    3.8541   56.8466 H       1  ZINC000486710336    0.0800
     36 H36        -4.4608    2.3544   57.2271 H       1  ZINC000486710336    0.1000
     37 H37        -4.9446    2.7013   55.5497 H       1  ZINC000486710336    0.0800
     38 H38        -9.5012   -0.5369   58.3946 H       1  ZINC000486710336    0.0900
     39 H39        -7.5949   -1.3001   59.6556 H       1  ZINC000486710336    0.0700
     40 H40        -7.1838    0.3612   60.1959 H       1  ZINC000486710336    0.0800
     41 H41        -9.5396   -1.3989   61.0723 H       1  ZINC000486710336    0.0700
     42 H42        -8.3877   -0.4928   62.1028 H       1  ZINC000486710336    0.0700
     43 H43       -10.8758    0.4928   61.3855 H       1  ZINC000486710336    0.0600
     44 H44        -9.4740    1.5408   61.7428 H       1  ZINC000486710336    0.0600
     45 H45        -9.4427    2.2407   59.5674 H       1  ZINC000486710336    0.0700
     46 H46       -10.8445    1.1927   59.2100 H       1  ZINC000486710336    0.0700
     47 H47        -9.4339    0.9551   56.0630 H       1  ZINC000486710336    0.1700
     48 H48        -7.2150    3.3075   54.3945 H       1  ZINC000486710336    0.4200
     49 H49        -5.2121    2.6800   52.9993 H       1  ZINC000486710336    0.0900
     50 H50        -5.2120    1.0073   52.3730 H       1  ZINC000486710336    0.0800
     51 H51        -1.7619    2.4804   50.1692 H       1  ZINC000486710336    0.1200
     52 H52         0.1622    3.6437   51.1729 H       1  ZINC000486710336    0.1200
     53 H53        -0.1408    4.9932   53.2102 H       1  ZINC000486710336    0.1200
     54 H54        -2.3682    5.1798   54.2433 H       1  ZINC000486710336    0.1200
     55 H55        -4.2932    4.0202   53.2368 H       1  ZINC000486710336    0.1200
     56 H56        -5.3570    4.6199   51.9070 H       1  ZINC000486710336    0.0700
     57 H57        -4.2159    5.2777   50.7141 H       1  ZINC000486710336    0.0700
     58 H58        -6.2673    6.6378   50.7794 H       1  ZINC000486710336    0.0600
     59 H59        -6.1280    5.8085   49.2072 H       1  ZINC000486710336    0.0600
     60 H60        -7.7599    4.7896   51.5822 H       1  ZINC000486710336    0.0500
     61 H61        -8.4383    5.6325   50.1658 H       1  ZINC000486710336    0.0600
     62 H62        -8.6077    3.1711   49.9116 H       1  ZINC000486710336    0.1000
     63 H63        -7.5438    3.8794   48.6792 H       1  ZINC000486710336    0.0700
@<TRIPOS>BOND
     1     1     2    1
     2     1    35    1
     3     1    36    1
     4     1    37    1
     5     2    11    1
     6     2     3    1
     7     3     4    2
     8     4     5    1
     9     4    10    1
    10     5     9    1
    11     5     6    1
    12     5    38    1
    13     6     7    1
    14     6    39    1
    15     6    40    1
    16     7     8    1
    17     7    41    1
    18     7    42    1
    19     8     9    1
    20     8    43    1
    21     8    44    1
    22     9    45    1
    23     9    46    1
    24    10    11    2
    25    10    47    1
    26    11    12    1
    27    12    13   am
    28    12    48    1
    29    13    14    2
    30    13    15    1
    31    15    16    2
    32    15    17   am
    33    17    33    1
    34    17    18    1
    35    18    19    1
    36    18    49    1
    37    18    50    1
    38    19    20    1
    39    19    21    1
    40    19    27    1
    41    21    26   ar
    42    21    22   ar
    43    22    23   ar
    44    22    51    1
    45    23    24   ar
    46    23    52    1
    47    24    25   ar
    48    24    53    1
    49    25    26   ar
    50    25    54    1
    51    26    55    1
    52    27    28    1
    53    27    33    1
    54    27    29    1
    55    29    30    1
    56    29    56    1
    57    29    57    1
    58    30    31    1
    59    30    58    1
    60    30    59    1
    61    31    32    1
    62    31    60    1
    63    31    61    1
    64    32    33    1
    65    32    62    1
    66    32    63    1
    67    33    34    1
@<TRIPOS>SUBSTRUCTURE
     1 ZINC000486710336        1 TEMP              0 ****  ****    0 ROOT


##########                                Name:    ZINC000770850676
##########                DOCK_Rotatable_Bonds:                  13
##########                         Heavy_Atoms:                  30
##########                    Molecular_Weight:             412.486
##########                DOCK_Rotatable_Bonds:                  13
##########                       Formal_Charge:          -0.0299994
##########                     HBond_Acceptors:                   7
##########                        HBond_Donors:                   3
##########                         Heavy_Atoms:                  30
##########                          Grid_Score:          -33.504055
##########                     Grid_vdw_energy:          -33.378593
##########                      Grid_es_energy:           -0.125461
##########           Internal_energy_repulsive:           12.397022

@<TRIPOS>MOLECULE
ZINC000770850676
 58 60 1 0 0
SMALL
USER_CHARGES


@<TRIPOS>ATOM
      1 O1         -9.7845   -1.3246   55.1212 O.2     1  ZINC000770850676   -0.5300
      2 C2        -10.4834   -0.4236   55.5343 C.2     1  ZINC000770850676    0.5100
      3 N3        -10.8333   -0.3844   56.8353 N.am    1  ZINC000770850676   -0.7000
      4 C4        -10.3744   -1.4334   57.7491 C.3     1  ZINC000770850676    0.1600
      5 H5         -9.3267   -1.6572   57.5486 H       1  ZINC000770850676    0.1000
      6 C6        -11.2144   -2.6951   57.5403 C.3     1  ZINC000770850676    0.0600
      7 O7        -12.5731   -2.4264   57.8920 O.3     1  ZINC000770850676   -0.5700
      8 C8        -10.5258   -0.9533   59.1939 C.3     1  ZINC000770850676   -0.1500
      9 C9         -9.2166   -0.3120   59.6582 C.3     1  ZINC000770850676    0.1500
     10 H10        -8.3809   -0.9596   59.3929 H       1  ZINC000770850676    0.1100
     11 O11        -9.0562    0.9574   59.0220 O.3     1  ZINC000770850676   -0.5400
     12 C12        -9.2517   -0.1240   61.1529 C.ar    1  ZINC000770850676   -0.1200
     13 C13       -10.4387    0.2047   61.7806 C.ar    1  ZINC000770850676   -0.1100
     14 C14       -10.4709    0.3772   63.1517 C.ar    1  ZINC000770850676   -0.1200
     15 C15        -9.3163    0.2206   63.8954 C.ar    1  ZINC000770850676   -0.1200
     16 C16        -8.1294   -0.1090   63.2679 C.ar    1  ZINC000770850676   -0.1200
     17 C17        -8.0981   -0.2857   61.8973 C.ar    1  ZINC000770850676   -0.1100
     18 C18       -10.9555    0.6556   54.5942 C.3     1  ZINC000770850676    0.1400
     19 H19       -11.0975    1.5875   55.1414 H       1  ZINC000770850676    0.1000
     20 C20       -12.2817    0.2296   53.9300 C.3     1  ZINC000770850676   -0.1200
     21 C21       -12.1272    0.7538   52.4778 C.3     1  ZINC000770850676   -0.1300
     22 C22       -10.6134    0.5385   52.2290 C.3     1  ZINC000770850676    0.1000
     23 N23        -9.9692    0.8507   53.5215 N.am    1  ZINC000770850676   -0.5900
     24 C24        -8.6914    1.2460   53.6872 C.2     1  ZINC000770850676    0.6700
     25 O25        -8.2661    1.4755   54.8020 O.2     1  ZINC000770850676   -0.5600
     26 O26        -7.8863    1.3867   52.6173 O.3     1  ZINC000770850676   -0.3600
     27 C27        -6.4682    1.1528   52.8243 C.3     1  ZINC000770850676    0.1300
     28 C28        -5.7305    1.3591   51.5265 C.ar    1  ZINC000770850676   -0.1000
     29 C29        -5.5163    2.6386   51.0491 C.ar    1  ZINC000770850676   -0.0900
     30 C30        -4.8395    2.8278   49.8586 C.ar    1  ZINC000770850676   -0.1200
     31 C31        -4.3765    1.7376   49.1459 C.ar    1  ZINC000770850676   -0.1100
     32 C32        -4.5899    0.4582   49.6238 C.ar    1  ZINC000770850676   -0.1200
     33 C33        -5.2629    0.2691   50.8164 C.ar    1  ZINC000770850676   -0.0900
     34 H34       -11.3890    0.3383   57.1665 H       1  ZINC000770850676    0.4000
     35 H35       -11.1626   -2.9969   56.4941 H       1  ZINC000770850676    0.0500
     36 H36       -10.8280   -3.4971   58.1693 H       1  ZINC000770850676    0.0500
     37 H37       -12.6939   -2.1469   58.8098 H       1  ZINC000770850676    0.3800
     38 H38       -11.3299   -0.2195   59.2505 H       1  ZINC000770850676    0.0800
     39 H39       -10.7625   -1.8018   59.8359 H       1  ZINC000770850676    0.0900
     40 H40        -9.7549    1.5927   59.2299 H       1  ZINC000770850676    0.3700
     41 H41       -11.3409    0.3270   61.1995 H       1  ZINC000770850676    0.1200
     42 H42       -11.3982    0.6347   63.6419 H       1  ZINC000770850676    0.1200
     43 H43        -9.3412    0.3561   64.9665 H       1  ZINC000770850676    0.1200
     44 H44        -7.2272   -0.2310   63.8488 H       1  ZINC000770850676    0.1200
     45 H45        -7.1708   -0.5432   61.4070 H       1  ZINC000770850676    0.1200
     46 H46       -12.3867   -0.8553   53.9392 H       1  ZINC000770850676    0.0800
     47 H47       -13.1300    0.7044   54.4231 H       1  ZINC000770850676    0.1000
     48 H48       -12.7250    0.1634   51.7836 H       1  ZINC000770850676    0.0900
     49 H49       -12.3872    1.8104   52.4141 H       1  ZINC000770850676    0.0800
     50 H50       -10.4187   -0.4961   51.9468 H       1  ZINC000770850676    0.0700
     51 H51       -10.2559    1.2175   51.4548 H       1  ZINC000770850676    0.0900
     52 H52        -6.0903    1.8503   53.5719 H       1  ZINC000770850676    0.0800
     53 H53        -6.3153    0.1307   53.1707 H       1  ZINC000770850676    0.0800
     54 H54        -5.8780    3.4903   51.6060 H       1  ZINC000770850676    0.1200
     55 H55        -4.6728    3.8274   49.4853 H       1  ZINC000770850676    0.1300
     56 H56        -3.8484    1.8855   48.2155 H       1  ZINC000770850676    0.1300
     57 H57        -4.2286   -0.3936   49.0667 H       1  ZINC000770850676    0.1300
     58 H58        -5.4296   -0.7304   51.1898 H       1  ZINC000770850676    0.1200
@<TRIPOS>BOND
     1     1     2    2
     2     2     3   am
     3     2    18    1
     4     3     4    1
     5     3    34    1
     6     4     5    1
     7     4     6    1
     8     4     8    1
     9     6     7    1
    10     6    35    1
    11     6    36    1
    12     7    37    1
    13     8     9    1
    14     8    38    1
    15     8    39    1
    16     9    10    1
    17     9    11    1
    18     9    12    1
    19    11    40    1
    20    12    17   ar
    21    12    13   ar
    22    13    14   ar
    23    13    41    1
    24    14    15   ar
    25    14    42    1
    26    15    16   ar
    27    15    43    1
    28    16    17   ar
    29    16    44    1
    30    17    45    1
    31    18    19    1
    32    18    23    1
    33    18    20    1
    34    20    21    1
    35    20    46    1
    36    20    47    1
    37    21    22    1
    38    21    48    1
    39    21    49    1
    40    22    23    1
    41    22    50    1
    42    22    51    1
    43    23    24   am
    44    24    25    2
    45    24    26    1
    46    26    27    1
    47    27    28    1
    48    27    52    1
    49    27    53    1
    50    28    33   ar
    51    28    29   ar
    52    29    30   ar
    53    29    54    1
    54    30    31   ar
    55    30    55    1
    56    31    32   ar
    57    31    56    1
    58    32    33   ar
    59    32    57    1
    60    33    58    1
@<TRIPOS>SUBSTRUCTURE
     1 ZINC000770850676        1 TEMP              0 ****  ****    0 ROOT


##########                                Name:    ZINC000655982608
##########                DOCK_Rotatable_Bonds:                   5
##########                         Heavy_Atoms:                  29
##########                    Molecular_Weight:             388.469
##########                DOCK_Rotatable_Bonds:                   5
##########                       Formal_Charge:          -0.0200006
##########                     HBond_Acceptors:                   6
##########                        HBond_Donors:                   0
##########                         Heavy_Atoms:                  29
##########                          Grid_Score:          -33.494274
##########                     Grid_vdw_energy:          -33.262512
##########                      Grid_es_energy:           -0.231764
##########           Internal_energy_repulsive:           22.936049

@<TRIPOS>MOLECULE
ZINC000655982608
 53 57 1 0 0
SMALL
USER_CHARGES


@<TRIPOS>ATOM
      1 C1         -5.6869    3.9182   50.3662 C.3     1  ZINC000655982608   -0.1900
      2 C2         -5.5124    2.4741   50.8405 C.3     1  ZINC000655982608    0.0800
      3 H3         -5.4937    2.4492   51.9301 H       1  ZINC000655982608    0.1000
      4 C4         -6.6789    1.6254   50.3308 C.3     1  ZINC000655982608   -0.0300
      5 C5         -7.3779    0.9790   51.4990 C.2     1  ZINC000655982608    0.2000
      6 N6         -8.0432    1.5926   52.4479 N.2     1  ZINC000655982608   -0.4800
      7 C7         -8.4875    0.6210   53.2649 C.2     1  ZINC000655982608    0.1700
      8 C8         -9.3103    0.8122   54.5129 C.3     1  ZINC000655982608   -0.0100
      9 H9        -10.0685    1.5809   54.3640 H       1  ZINC000655982608    0.1300
     10 C10        -9.9538   -0.5205   54.9609 C.3     1  ZINC000655982608   -0.1400
     11 C11        -9.8950   -0.4716   56.4718 C.2     1  ZINC000655982608    0.5200
     12 O12       -10.5366   -1.1831   57.2154 O.2     1  ZINC000655982608   -0.5000
     13 N13        -9.0277    0.4751   56.8702 N.am    1  ZINC000655982608   -0.5600
     14 C14        -8.7496    0.7784   58.2075 C.ar    1  ZINC000655982608    0.1600
     15 C15        -8.3906   -0.2319   59.0901 C.ar    1  ZINC000655982608   -0.1600
     16 C16        -8.1168    0.0707   60.4095 C.ar    1  ZINC000655982608   -0.0900
     17 C17        -8.2002    1.3781   60.8522 C.ar    1  ZINC000655982608   -0.1400
     18 C18        -8.5579    2.3863   59.9761 C.ar    1  ZINC000655982608   -0.0900
     19 C19        -8.8265    2.0912   58.6538 C.ar    1  ZINC000655982608   -0.1600
     20 C20        -8.4102    1.1504   55.7220 C.3     1  ZINC000655982608    0.1100
     21 N21        -8.0773   -0.5127   52.7803 N.2     1  ZINC000655982608   -0.3700
     22 O22        -7.4429   -0.3296   51.7627 O.3     1  ZINC000655982608    0.0900
     23 N23        -4.2498    1.9360   50.3168 N.3     1  ZINC000655982608   -0.4700
     24 C24        -4.2647    1.8928   48.8384 C.3     1  ZINC000655982608    0.0300
     25 C25        -2.7762    2.1050   48.4789 C.3     1  ZINC000655982608   -0.0800
     26 C26        -2.2445    2.8622   49.6794 C.ar    1  ZINC000655982608   -0.1400
     27 C27        -1.0890    3.5917   49.8624 C.ar    1  ZINC000655982608   -0.0800
     28 C28        -0.8388    4.2006   51.0793 C.ar    1  ZINC000655982608   -0.1400
     29 C29        -1.7499    4.0768   52.1118 C.ar    1  ZINC000655982608   -0.0900
     30 C30        -2.9066    3.3462   51.9345 C.ar    1  ZINC000655982608   -0.1400
     31 C31        -3.1644    2.7271   50.7128 C.ar    1  ZINC000655982608    0.1000
     32 H32        -6.5648    4.3537   50.8434 H       1  ZINC000655982608    0.0700
     33 H33        -4.8032    4.4977   50.6333 H       1  ZINC000655982608    0.0700
     34 H34        -5.8171    3.9321   49.2841 H       1  ZINC000655982608    0.0700
     35 H35        -7.3824    2.2606   49.7926 H       1  ZINC000655982608    0.1200
     36 H36        -6.3009    0.8531   49.6610 H       1  ZINC000655982608    0.1100
     37 H37       -10.9880   -0.5779   54.6211 H       1  ZINC000655982608    0.1200
     38 H38        -9.3799   -1.3670   54.5840 H       1  ZINC000655982608    0.1200
     39 H39        -8.3260   -1.2533   58.7451 H       1  ZINC000655982608    0.1200
     40 H40        -7.8375   -0.7145   61.0963 H       1  ZINC000655982608    0.1300
     41 H41        -7.9859    1.6121   61.8845 H       1  ZINC000655982608    0.1200
     42 H42        -8.6228    3.4063   60.3250 H       1  ZINC000655982608    0.1300
     43 H43        -9.1058    2.8791   57.9700 H       1  ZINC000655982608    0.1500
     44 H44        -7.4017    0.7706   55.5588 H       1  ZINC000655982608    0.0900
     45 H45        -8.3864    2.2277   55.8863 H       1  ZINC000655982608    0.1000
     46 H46        -4.6137    0.9231   48.4834 H       1  ZINC000655982608    0.1000
     47 H47        -4.8787    2.6975   48.4342 H       1  ZINC000655982608    0.0700
     48 H48        -2.2655    1.1484   48.3687 H       1  ZINC000655982608    0.0900
     49 H49        -2.6795    2.7021   47.5721 H       1  ZINC000655982608    0.0800
     50 H50        -0.3781    3.6876   49.0551 H       1  ZINC000655982608    0.1200
     51 H51         0.0669    4.7715   51.2224 H       1  ZINC000655982608    0.1200
     52 H52        -1.5551    4.5537   53.0610 H       1  ZINC000655982608    0.1300
     53 H53        -3.6141    3.2529   52.7452 H       1  ZINC000655982608    0.1200
@<TRIPOS>BOND
     1     1     2    1
     2     1    32    1
     3     1    33    1
     4     1    34    1
     5     2     3    1
     6     2     4    1
     7     2    23    1
     8     4     5    1
     9     4    35    1
    10     4    36    1
    11     5    22    1
    12     5     6    2
    13     6     7    1
    14     7     8    1
    15     7    21    2
    16     8     9    1
    17     8    20    1
    18     8    10    1
    19    10    11    1
    20    10    37    1
    21    10    38    1
    22    11    12    2
    23    11    13   am
    24    13    14    1
    25    13    20    1
    26    14    19   ar
    27    14    15   ar
    28    15    16   ar
    29    15    39    1
    30    16    17   ar
    31    16    40    1
    32    17    18   ar
    33    17    41    1
    34    18    19   ar
    35    18    42    1
    36    19    43    1
    37    20    44    1
    38    20    45    1
    39    21    22    1
    40    23    31    1
    41    23    24    1
    42    24    25    1
    43    24    46    1
    44    24    47    1
    45    25    26    1
    46    25    48    1
    47    25    49    1
    48    26    31   ar
    49    26    27   ar
    50    27    28   ar
    51    27    50    1
    52    28    29   ar
    53    28    51    1
    54    29    30   ar
    55    29    52    1
    56    30    31   ar
    57    30    53    1
@<TRIPOS>SUBSTRUCTURE
     1 ZINC000655982608        1 TEMP              0 ****  ****    0 ROOT


##########                                Name:    ZINC000790735374
##########                DOCK_Rotatable_Bonds:                   5
##########                         Heavy_Atoms:                  25
##########                    Molecular_Weight:             353.445
##########                DOCK_Rotatable_Bonds:                   5
##########                       Formal_Charge:                   0
##########                     HBond_Acceptors:                   6
##########                        HBond_Donors:                   1
##########                         Heavy_Atoms:                  25
##########                          Grid_Score:          -33.479301
##########                     Grid_vdw_energy:          -32.572758
##########                      Grid_es_energy:           -0.906545
##########           Internal_energy_repulsive:            7.917166

@<TRIPOS>MOLECULE
ZINC000790735374
 44 47 1 0 0
SMALL
USER_CHARGES


@<TRIPOS>ATOM
      1 O1         -6.5759    0.1936   50.0649 O.2     1  ZINC000790735374   -0.5100
      2 C2         -6.0378    0.5569   51.0893 C.2     1  ZINC000790735374    0.5000
      3 N3         -4.9117    1.2954   51.0336 N.am    1  ZINC000790735374   -0.7200
      4 C4         -4.3343    1.6540   49.7359 C.3     1  ZINC000790735374    0.1400
      5 C5         -3.3185    2.7826   49.9239 C.3     1  ZINC000790735374   -0.0300
      6 H6         -3.7675    3.7267   49.6151 H       1  ZINC000790735374    0.1100
      7 S7         -2.8521    2.8842   51.6732 S.3     1  ZINC000790735374   -0.2400
      8 C8         -1.3814    3.9528   51.5745 C.3     1  ZINC000790735374   -0.0800
      9 C9         -0.3198    3.2079   50.7788 C.3     1  ZINC000790735374   -0.0800
     10 C10        -0.8036    2.7177   49.4438 C.ar    1  ZINC000790735374   -0.0700
     11 C11         0.2129    2.4577   48.5184 C.ar    1  ZINC000790735374   -0.1200
     12 C12        -0.0664    1.9880   47.2567 C.ar    1  ZINC000790735374   -0.1100
     13 C13        -1.3800    1.7631   46.8891 C.ar    1  ZINC000790735374   -0.1200
     14 C14        -2.3853    2.0225   47.7925 C.ar    1  ZINC000790735374   -0.1100
     15 C15        -2.1030    2.5065   49.0740 C.ar    1  ZINC000790735374   -0.0800
     16 C16        -6.6317    0.1879   52.4243 C.3     1  ZINC000790735374    0.0300
     17 H17        -5.8485   -0.0008   53.1586 H       1  ZINC000790735374    0.1500
     18 C18        -7.6034    1.2851   52.9204 C.3     1  ZINC000790735374   -0.1400
     19 C19        -8.9466    0.7849   52.4238 C.2     1  ZINC000790735374    0.1200
     20 C20       -10.1862    1.5816   52.3319 C.ar    1  ZINC000790735374   -0.1000
     21 C21       -11.3711    1.0030   51.8613 C.ar    1  ZINC000790735374   -0.0400
     22 C22       -12.5055    1.7930   51.7952 C.ar    1  ZINC000790735374   -0.1700
     23 C23       -12.4334    3.1159   52.1921 C.ar    1  ZINC000790735374    0.1200
     24 N24       -11.3028    3.6348   52.6317 N.ar    1  ZINC000790735374   -0.4800
     25 C25       -10.1983    2.9232   52.7183 C.ar    1  ZINC000790735374    0.1400
     26 N26        -8.8196   -0.4569   52.0953 N.2     1  ZINC000790735374   -0.2700
     27 O27        -7.5095   -0.9495   52.3020 O.3     1  ZINC000790735374   -0.1600
     28 H28        -4.4834    1.5893   51.8528 H       1  ZINC000790735374    0.4100
     29 H29        -3.8362    0.7845   49.3070 H       1  ZINC000790735374    0.0800
     30 H30        -5.1266    1.9863   49.0651 H       1  ZINC000790735374    0.0900
     31 H31        -1.6352    4.8849   51.0696 H       1  ZINC000790735374    0.0900
     32 H32        -1.0106    4.1643   52.5774 H       1  ZINC000790735374    0.1100
     33 H33         0.5281    3.8741   50.6195 H       1  ZINC000790735374    0.0900
     34 H34         0.0176    2.3521   51.3633 H       1  ZINC000790735374    0.0900
     35 H35         1.2408    2.6301   48.8016 H       1  ZINC000790735374    0.1200
     36 H36         0.7344    1.7966   46.5579 H       1  ZINC000790735374    0.1300
     37 H37        -1.6148    1.3883   45.9038 H       1  ZINC000790735374    0.1300
     38 H38        -3.4117    1.8463   47.5068 H       1  ZINC000790735374    0.1300
     39 H39        -7.5924    1.3486   54.0085 H       1  ZINC000790735374    0.1200
     40 H40        -7.3599    2.2488   52.4731 H       1  ZINC000790735374    0.1100
     41 H41       -11.3990   -0.0329   51.5573 H       1  ZINC000790735374    0.1500
     42 H42       -13.4373    1.3809   51.4369 H       1  ZINC000790735374    0.1500
     43 H43       -13.3172    3.7346   52.1411 H       1  ZINC000790735374    0.1600
     44 H44        -9.2920    3.3833   53.0835 H       1  ZINC000790735374    0.1600
@<TRIPOS>BOND
     1     1     2    2
     2     2     3   am
     3     2    16    1
     4     3     4    1
     5     3    28    1
     6     4     5    1
     7     4    29    1
     8     4    30    1
     9     5     6    1
    10     5    15    1
    11     5     7    1
    12     7     8    1
    13     8     9    1
    14     8    31    1
    15     8    32    1
    16     9    10    1
    17     9    33    1
    18     9    34    1
    19    10    15   ar
    20    10    11   ar
    21    11    12   ar
    22    11    35    1
    23    12    13   ar
    24    12    36    1
    25    13    14   ar
    26    13    37    1
    27    14    15   ar
    28    14    38    1
    29    16    17    1
    30    16    27    1
    31    16    18    1
    32    18    19    1
    33    18    39    1
    34    18    40    1
    35    19    20    1
    36    19    26    2
    37    20    25   ar
    38    20    21   ar
    39    21    22   ar
    40    21    41    1
    41    22    23   ar
    42    22    42    1
    43    23    24   ar
    44    23    43    1
    45    24    25   ar
    46    25    44    1
    47    26    27    1
@<TRIPOS>SUBSTRUCTURE
     1 ZINC000790735374        1 TEMP              0 ****  ****    0 ROOT


##########                                Name:    ZINC000369046711
##########                DOCK_Rotatable_Bonds:                   8
##########                         Heavy_Atoms:                  26
##########                    Molecular_Weight:             367.467
##########                DOCK_Rotatable_Bonds:                   8
##########                       Formal_Charge:        -7.63685e-07
##########                     HBond_Acceptors:                   8
##########                        HBond_Donors:                   1
##########                         Heavy_Atoms:                  26
##########                          Grid_Score:          -33.469440
##########                     Grid_vdw_energy:          -32.362637
##########                      Grid_es_energy:           -1.106806
##########           Internal_energy_repulsive:           17.901705

@<TRIPOS>MOLECULE
ZINC000369046711
 56 58 1 0 0
SMALL
USER_CHARGES


@<TRIPOS>ATOM
      1 C1        -10.8445    1.7920   54.2614 C.3     1  ZINC000369046711   -0.1800
      2 C2        -11.5452    0.5395   53.7313 C.3     1  ZINC000369046711    0.1400
      3 C3        -11.7109   -0.4717   54.8674 C.3     1  ZINC000369046711   -0.1800
      4 C4        -12.9216    0.9191   53.1817 C.3     1  ZINC000369046711   -0.1400
      5 O5        -10.7466   -0.0499   52.6714 O.3     1  ZINC000369046711   -0.3700
      6 C6         -9.4088   -0.0042   52.8165 C.2     1  ZINC000369046711    0.6500
      7 O7         -8.8611   -0.7216   53.6301 O.2     1  ZINC000369046711   -0.5700
      8 N8         -8.6773    0.8373   52.0595 N.am    1  ZINC000369046711   -0.7100
      9 C9         -7.2215    0.8858   52.2162 C.3     1  ZINC000369046711    0.1800
     10 H10        -6.8650   -0.0959   52.5282 H       1  ZINC000369046711    0.0900
     11 C11        -6.8703    1.9096   53.2951 C.3     1  ZINC000369046711   -0.1300
     12 C12        -7.3679    3.2828   52.8289 C.3     1  ZINC000369046711   -0.1200
     13 C13        -6.5987    3.6723   51.5699 C.3     1  ZINC000369046711   -0.1200
     14 C14        -6.8655    2.6818   50.4346 C.3     1  ZINC000369046711   -0.1000
     15 H15        -7.8594    2.8089   50.0056 H       1  ZINC000369046711    0.0900
     16 C16        -5.7384    2.8989   49.3880 C.3     1  ZINC000369046711    0.0400
     17 N17        -4.6473    1.9662   49.7315 N.3     1  ZINC000369046711   -0.5200
     18 C18        -3.3966    2.6917   49.9909 C.3     1  ZINC000369046711    0.1200
     19 C19        -2.4244    2.4340   48.8687 C.2     1  ZINC000369046711    0.2900
     20 N20        -2.7320    2.0270   47.6640 N.2     1  ZINC000369046711   -0.5400
     21 C21        -1.6254    1.9044   46.9320 C.2     1  ZINC000369046711    0.2000
     22 N22        -0.5937    2.2333   47.6641 N.2     1  ZINC000369046711   -0.3200
     23 N23        -1.0903    2.5878   48.9291 N.pl3   1  ZINC000369046711   -0.3700
     24 C24        -0.3088    3.0283   50.0873 C.3     1  ZINC000369046711    0.1000
     25 C25         1.0286    2.2857   50.1124 C.3     1  ZINC000369046711    0.0500
     26 F26         1.7698    2.6213   48.9743 F       1  ZINC000369046711   -0.2000
     27 C27        -5.0582    1.1752   50.9160 C.3     1  ZINC000369046711    0.0500
     28 C28        -6.5959    1.2374   50.8905 C.3     1  ZINC000369046711   -0.1000
     29 H29        -6.9700    0.5482   50.1334 H       1  ZINC000369046711    0.0900
     30 H30        -9.8639    1.5215   54.6529 H       1  ZINC000369046711    0.0900
     31 H31       -10.7265    2.5124   53.4520 H       1  ZINC000369046711    0.0600
     32 H32       -11.4440    2.2344   55.0569 H       1  ZINC000369046711    0.0700
     33 H33       -12.3104   -0.0294   55.6630 H       1  ZINC000369046711    0.0700
     34 H34       -12.2101   -1.3641   54.4897 H       1  ZINC000369046711    0.0600
     35 H35       -10.7303   -0.7422   55.2589 H       1  ZINC000369046711    0.0900
     36 H36       -12.8036    1.6395   52.3721 H       1  ZINC000369046711    0.0700
     37 H37       -13.4208    0.0267   52.8040 H       1  ZINC000369046711    0.0700
     38 H38       -13.5211    1.3615   53.9772 H       1  ZINC000369046711    0.0800
     39 H39        -9.1146    1.4108   51.4109 H       1  ZINC000369046711    0.4000
     40 H40        -7.3584    1.6396   54.2316 H       1  ZINC000369046711    0.0700
     41 H41        -5.7900    1.9383   53.4376 H       1  ZINC000369046711    0.0800
     42 H42        -8.4337    3.2309   52.6065 H       1  ZINC000369046711    0.0600
     43 H43        -7.1911    4.0219   53.6103 H       1  ZINC000369046711    0.0700
     44 H44        -6.9083    4.6689   51.2553 H       1  ZINC000369046711    0.0700
     45 H45        -5.5315    3.6833   51.7917 H       1  ZINC000369046711    0.0600
     46 H46        -6.1126    2.6817   48.3875 H       1  ZINC000369046711    0.0800
     47 H47        -5.3786    3.9267   49.4362 H       1  ZINC000369046711    0.0800
     48 H48        -3.6029    3.7601   50.0547 H       1  ZINC000369046711    0.0800
     49 H49        -2.9656    2.3481   50.9312 H       1  ZINC000369046711    0.1000
     50 H50        -1.5870    1.5847   45.9011 H       1  ZINC000369046711    0.2200
     51 H51        -0.1277    4.1008   50.0167 H       1  ZINC000369046711    0.1200
     52 H52        -0.8614    2.8126   51.0017 H       1  ZINC000369046711    0.1100
     53 H53         1.5853    2.5699   51.0054 H       1  ZINC000369046711    0.0900
     54 H54         0.8473    1.2110   50.1239 H       1  ZINC000369046711    0.0800
     55 H55        -4.7147    0.1448   50.8251 H       1  ZINC000369046711    0.0900
     56 H56        -4.6734    1.6279   51.8298 H       1  ZINC000369046711    0.0600
@<TRIPOS>BOND
     1     1     2    1
     2     1    30    1
     3     1    31    1
     4     1    32    1
     5     2     3    1
     6     2     4    1
     7     2     5    1
     8     3    33    1
     9     3    34    1
    10     3    35    1
    11     4    36    1
    12     4    37    1
    13     4    38    1
    14     5     6    1
    15     6     7    2
    16     6     8   am
    17     8     9    1
    18     8    39    1
    19     9    10    1
    20     9    28    1
    21     9    11    1
    22    11    12    1
    23    11    40    1
    24    11    41    1
    25    12    13    1
    26    12    42    1
    27    12    43    1
    28    13    14    1
    29    13    44    1
    30    13    45    1
    31    14    15    1
    32    14    28    1
    33    14    16    1
    34    16    17    1
    35    16    46    1
    36    16    47    1
    37    17    18    1
    38    17    27    1
    39    18    19    1
    40    18    48    1
    41    18    49    1
    42    19    23    1
    43    19    20    2
    44    20    21    1
    45    21    22    2
    46    21    50    1
    47    22    23    1
    48    23    24    1
    49    24    25    1
    50    24    51    1
    51    24    52    1
    52    25    26    1
    53    25    53    1
    54    25    54    1
    55    27    28    1
    56    27    55    1
    57    27    56    1
    58    28    29    1
@<TRIPOS>SUBSTRUCTURE
     1 ZINC000369046711        1 TEMP              0 ****  ****    0 ROOT


##########                                Name:    ZINC000279452407
##########                DOCK_Rotatable_Bonds:                   6
##########                         Heavy_Atoms:                  24
##########                    Molecular_Weight:              375.47
##########                DOCK_Rotatable_Bonds:                   6
##########                       Formal_Charge:          0.00999929
##########                     HBond_Acceptors:                  10
##########                        HBond_Donors:                   3
##########                         Heavy_Atoms:                  24
##########                          Grid_Score:          -33.437000
##########                     Grid_vdw_energy:          -30.735291
##########                      Grid_es_energy:           -2.701711
##########           Internal_energy_repulsive:           27.995178

@<TRIPOS>MOLECULE
ZINC000279452407
 45 47 1 0 0
SMALL
USER_CHARGES


@<TRIPOS>ATOM
      1 C1         -5.4402    2.9598   52.2480 C.3     1  ZINC000279452407   -0.1600
      2 C2         -4.2074    2.5153   51.4584 C.3     1  ZINC000279452407    0.0600
      3 H3         -3.7783    1.6221   51.9124 H       1  ZINC000279452407    0.0700
      4 O4         -3.2310    3.5722   51.4386 O.3     1  ZINC000279452407   -0.3700
      5 C5         -2.5636    3.5064   50.1594 C.3     1  ZINC000279452407    0.0500
      6 C6         -3.7107    3.1823   49.1671 C.3     1  ZINC000279452407   -0.1400
      7 C7         -4.5959    2.2261   50.0011 C.3     1  ZINC000279452407    0.0700
      8 C8         -6.0703    2.5480   49.7709 C.3     1  ZINC000279452407    0.1100
      9 N9         -6.8821    1.5132   50.4334 N.am    1  ZINC000279452407   -0.6300
     10 C10        -7.9011    1.8464   51.2502 C.2     1  ZINC000279452407    0.7200
     11 O11        -8.1623    3.0169   51.4500 O.2     1  ZINC000279452407   -0.5800
     12 N12        -8.6307    0.8821   51.8454 N.am    1  ZINC000279452407   -0.7500
     13 C13        -9.7383    1.2444   52.7332 C.3     1  ZINC000279452407    0.2000
     14 C14        -9.2641    1.2202   54.1635 C.2     1  ZINC000279452407   -0.1700
     15 C15        -9.5236    0.2518   55.0433 C.2     1  ZINC000279452407   -0.1400
     16 C16        -8.9810    0.4464   56.3018 C.2     1  ZINC000279452407    0.0100
     17 C17        -8.2809    1.5728   56.4440 C.2     1  ZINC000279452407   -0.7900
     18 S18        -7.4758    2.0884   57.9241 S.o2    1  ZINC000279452407    2.7300
     19 N19        -6.1608    2.9907   57.4781 N.am    1  ZINC000279452407   -1.2500
     20 O20        -8.3699    2.9784   58.5781 O.2     1  ZINC000279452407   -0.9600
     21 O21        -6.9661    0.9109   58.5347 O.2     1  ZINC000279452407   -0.9500
     22 S22        -8.2775    2.4608   54.9257 S.3     1  ZINC000279452407    0.2500
     23 C23        -6.5462    0.1038   50.1754 C.3     1  ZINC000279452407    0.0700
     24 C24        -5.0458   -0.0909   50.4219 C.3     1  ZINC000279452407    0.0400
     25 O25        -4.3142    0.8743   49.6604 O.3     1  ZINC000279452407   -0.3600
     26 H26        -6.1358    2.1252   52.3357 H       1  ZINC000279452407    0.0700
     27 H27        -5.1366    3.2859   53.2427 H       1  ZINC000279452407    0.0600
     28 H28        -5.9267    3.7850   51.7278 H       1  ZINC000279452407    0.0800
     29 H29        -2.1052    4.4650   49.9162 H       1  ZINC000279452407    0.1000
     30 H30        -1.8177    2.7116   50.1563 H       1  ZINC000279452407    0.0700
     31 H31        -4.2580    4.0852   48.8962 H       1  ZINC000279452407    0.1000
     32 H32        -3.3271    2.6800   48.2791 H       1  ZINC000279452407    0.1000
     33 H33        -6.3030    3.5241   50.1964 H       1  ZINC000279452407    0.1200
     34 H34        -6.2821    2.5509   48.7018 H       1  ZINC000279452407    0.0800
     35 H35        -8.4224   -0.0518   51.6860 H       1  ZINC000279452407    0.4000
     36 H36       -10.0911    2.2452   52.4843 H       1  ZINC000279452407    0.1000
     37 H37       -10.5525    0.5306   52.6082 H       1  ZINC000279452407    0.0900
     38 H38       -10.1127   -0.6181   54.7929 H       1  ZINC000279452407    0.1600
     39 H39        -9.1147   -0.2601   57.1077 H       1  ZINC000279452407    0.1600
     40 H40        -5.5799    3.3696   58.1562 H       1  ZINC000279452407    0.4200
     41 H41        -5.9716    3.1405   56.5385 H       1  ZINC000279452407    0.4200
     42 H42        -7.1144   -0.5375   50.8491 H       1  ZINC000279452407    0.0900
     43 H43        -6.7829   -0.1456   49.1410 H       1  ZINC000279452407    0.0900
     44 H44        -4.8307    0.0428   51.4821 H       1  ZINC000279452407    0.0600
     45 H45        -4.7536   -1.0949   50.1141 H       1  ZINC000279452407    0.1100
@<TRIPOS>BOND
     1     1     2    1
     2     1    26    1
     3     1    27    1
     4     1    28    1
     5     2     3    1
     6     2     7    1
     7     2     4    1
     8     4     5    1
     9     5     6    1
    10     5    29    1
    11     5    30    1
    12     6     7    1
    13     6    31    1
    14     6    32    1
    15     7    25    1
    16     7     8    1
    17     8     9    1
    18     8    33    1
    19     8    34    1
    20     9    10   am
    21     9    23    1
    22    10    11    2
    23    10    12   am
    24    12    13    1
    25    12    35    1
    26    13    14    1
    27    13    36    1
    28    13    37    1
    29    14    22    1
    30    14    15    2
    31    15    16    1
    32    15    38    1
    33    16    17    2
    34    16    39    1
    35    17    18    1
    36    17    22    1
    37    18    19   am
    38    18    20    2
    39    18    21    2
    40    19    40    1
    41    19    41    1
    42    23    24    1
    43    23    42    1
    44    23    43    1
    45    24    25    1
    46    24    44    1
    47    24    45    1
@<TRIPOS>SUBSTRUCTURE
     1 ZINC000279452407        1 TEMP              0 ****  ****    0 ROOT


##########                                Name:    ZINC000263872566
##########                DOCK_Rotatable_Bonds:                   9
##########                         Heavy_Atoms:                  26
##########                    Molecular_Weight:             362.469
##########                DOCK_Rotatable_Bonds:                   9
##########                       Formal_Charge:           0.0300001
##########                     HBond_Acceptors:                   6
##########                        HBond_Donors:                   2
##########                         Heavy_Atoms:                  26
##########                          Grid_Score:          -33.419781
##########                     Grid_vdw_energy:          -32.671700
##########                      Grid_es_energy:           -0.748082
##########           Internal_energy_repulsive:           22.001047

@<TRIPOS>MOLECULE
ZINC000263872566
 56 57 1 0 0
SMALL
USER_CHARGES


@<TRIPOS>ATOM
      1 C1         -7.6043   -0.2943   59.8067 C.3     1  ZINC000263872566   -0.1800
      2 C2         -9.0276    0.1331   59.4428 C.3     1  ZINC000263872566    0.1400
      3 H3         -9.7426   -0.5006   59.9677 H       1  ZINC000263872566    0.0700
      4 O4         -9.2283    1.4953   59.8251 O.3     1  ZINC000263872566   -0.5600
      5 C5         -9.2295   -0.0065   57.9560 C.ar    1  ZINC000263872566   -0.0800
      6 C6         -8.7896    0.9879   57.1025 C.ar    1  ZINC000263872566   -0.0900
      7 C7         -8.9748    0.8601   55.7386 C.ar    1  ZINC000263872566   -0.1000
      8 C8         -9.5994   -0.2626   55.2282 C.ar    1  ZINC000263872566   -0.1100
      9 C9         -9.8016   -0.4020   53.7413 C.3     1  ZINC000263872566    0.1800
     10 N10        -8.8907    0.5043   53.0375 N.am    1  ZINC000263872566   -0.7400
     11 C11        -8.2722    0.0973   51.9114 C.2     1  ZINC000263872566    0.7100
     12 O12        -8.4700   -1.0220   51.4796 O.2     1  ZINC000263872566   -0.5900
     13 N13        -7.4341    0.9310   51.2639 N.am    1  ZINC000263872566   -0.6300
     14 C14        -7.1803    2.2843   51.7767 C.3     1  ZINC000263872566    0.1100
     15 C15        -5.6681    2.4807   51.9224 C.3     1  ZINC000263872566   -0.1200
     16 C16        -4.9871    2.1770   50.5860 C.3     1  ZINC000263872566   -0.0800
     17 C17        -3.5028    2.4021   50.7162 C.2     1  ZINC000263872566    0.4700
     18 O18        -2.8022    2.3969   49.7317 O.2     1  ZINC000263872566   -0.5000
     19 O19        -2.9588    2.6084   51.9259 O.3     1  ZINC000263872566   -0.3500
     20 C20        -2.3012    3.8845   52.1440 C.3     1  ZINC000263872566    0.1200
     21 C21        -0.8364    3.7834   51.7139 C.3     1  ZINC000263872566   -0.1800
     22 C22        -3.0014    4.9665   51.3195 C.3     1  ZINC000263872566   -0.1400
     23 C23        -2.3730    4.2481   53.6284 C.3     1  ZINC000263872566   -0.1800
     24 C24        -5.2497    0.7203   50.1972 C.3     1  ZINC000263872566   -0.1300
     25 C25        -6.7525    0.5017   50.0351 C.3     1  ZINC000263872566    0.1300
     26 C26       -10.0379   -1.2577   56.0816 C.ar    1  ZINC000263872566   -0.1000
     27 C27        -9.8494   -1.1315   57.4451 C.ar    1  ZINC000263872566   -0.1100
     28 H28        -6.8894    0.3394   59.2819 H       1  ZINC000263872566    0.0700
     29 H29        -7.4584   -0.1934   60.8822 H       1  ZINC000263872566    0.0600
     30 H30        -7.4512   -1.3333   59.5152 H       1  ZINC000263872566    0.0700
     31 H31        -8.6197    2.1163   59.4020 H       1  ZINC000263872566    0.3800
     32 H32        -8.3017    1.8650   57.5012 H       1  ZINC000263872566    0.1300
     33 H33        -8.6318    1.6373   55.0717 H       1  ZINC000263872566    0.1300
     34 H34        -9.5956   -1.4294   53.4413 H       1  ZINC000263872566    0.0800
     35 H35       -10.8316   -0.1495   53.4895 H       1  ZINC000263872566    0.0800
     36 H36        -8.7328    1.3972   53.3820 H       1  ZINC000263872566    0.4000
     37 H37        -7.5789    3.0203   51.0783 H       1  ZINC000263872566    0.0800
     38 H38        -7.6596    2.4026   52.7485 H       1  ZINC000263872566    0.0800
     39 H39        -5.4612    3.5115   52.2101 H       1  ZINC000263872566    0.0900
     40 H40        -5.2855    1.8052   52.6875 H       1  ZINC000263872566    0.0800
     41 H41        -5.3882    2.8361   49.8160 H       1  ZINC000263872566    0.1100
     42 H42        -0.7853    3.5245   50.6563 H       1  ZINC000263872566    0.0600
     43 H43        -0.3427    4.7414   51.8777 H       1  ZINC000263872566    0.0700
     44 H44        -0.3376    3.0126   52.3013 H       1  ZINC000263872566    0.0800
     45 H45        -4.0449    5.0385   51.6259 H       1  ZINC000263872566    0.0700
     46 H46        -2.5077    5.9244   51.4832 H       1  ZINC000263872566    0.0800
     47 H47        -2.9502    4.7075   50.2619 H       1  ZINC000263872566    0.0700
     48 H48        -1.8741    3.4772   54.2158 H       1  ZINC000263872566    0.0800
     49 H49        -1.8794    5.2060   53.7922 H       1  ZINC000263872566    0.0700
     50 H50        -3.4165    4.3201   53.9349 H       1  ZINC000263872566    0.0600
     51 H51        -4.7450    0.4981   49.2569 H       1  ZINC000263872566    0.0900
     52 H52        -4.8711    0.0613   50.9785 H       1  ZINC000263872566    0.0700
     53 H53        -6.9509   -0.5549   49.8559 H       1  ZINC000263872566    0.1000
     54 H54        -7.1192    1.0922   49.1955 H       1  ZINC000263872566    0.0700
     55 H55       -10.5256   -2.1350   55.6828 H       1  ZINC000263872566    0.1300
     56 H56       -10.1920   -1.9090   58.1119 H       1  ZINC000263872566    0.1300
@<TRIPOS>BOND
     1     1     2    1
     2     1    28    1
     3     1    29    1
     4     1    30    1
     5     2     3    1
     6     2     4    1
     7     2     5    1
     8     4    31    1
     9     5    27   ar
    10     5     6   ar
    11     6     7   ar
    12     6    32    1
    13     7     8   ar
    14     7    33    1
    15     8     9    1
    16     8    26   ar
    17     9    10    1
    18     9    34    1
    19     9    35    1
    20    10    11   am
    21    10    36    1
    22    11    12    2
    23    11    13   am
    24    13    25    1
    25    13    14    1
    26    14    15    1
    27    14    37    1
    28    14    38    1
    29    15    16    1
    30    15    39    1
    31    15    40    1
    32    16    17    1
    33    16    24    1
    34    16    41    1
    35    17    18    2
    36    17    19    1
    37    19    20    1
    38    20    21    1
    39    20    22    1
    40    20    23    1
    41    21    42    1
    42    21    43    1
    43    21    44    1
    44    22    45    1
    45    22    46    1
    46    22    47    1
    47    23    48    1
    48    23    49    1
    49    23    50    1
    50    24    25    1
    51    24    51    1
    52    24    52    1
    53    25    53    1
    54    25    54    1
    55    26    27   ar
    56    26    55    1
    57    27    56    1
@<TRIPOS>SUBSTRUCTURE
     1 ZINC000263872566        1 TEMP              0 ****  ****    0 ROOT


##########                                Name:    ZINC000962730513
##########                DOCK_Rotatable_Bonds:                   6
##########                         Heavy_Atoms:                  24
##########                    Molecular_Weight:             342.465
##########                DOCK_Rotatable_Bonds:                   6
##########                       Formal_Charge:         -0.00999998
##########                     HBond_Acceptors:                   6
##########                        HBond_Donors:                   1
##########                         Heavy_Atoms:                  24
##########                          Grid_Score:          -33.388435
##########                     Grid_vdw_energy:          -33.253239
##########                      Grid_es_energy:           -0.135196
##########           Internal_energy_repulsive:           11.489461

@<TRIPOS>MOLECULE
ZINC000962730513
 46 49 1 0 0
SMALL
USER_CHARGES


@<TRIPOS>ATOM
      1 C1         -7.8297    0.3531   58.9027 C.3     1  ZINC000962730513   -0.1400
      2 C2         -8.2660    0.9269   57.5530 C.3     1  ZINC000962730513   -0.0800
      3 C3         -9.3149    0.0334   56.9428 C.2     1  ZINC000962730513   -0.0100
      4 C4         -9.5261   -0.0661   55.5963 C.2     1  ZINC000962730513   -0.2800
      5 C5         -8.7838    0.6620   54.5631 C.2     1  ZINC000962730513    0.6000
      6 O6         -8.3450    1.7726   54.7976 O.2     1  ZINC000962730513   -0.5200
      7 N7         -8.5873    0.1014   53.3533 N.am    1  ZINC000962730513   -0.7000
      8 C8         -7.8469    0.8298   52.3200 C.3     1  ZINC000962730513    0.1200
      9 H9         -8.4437    1.4939   51.6949 H       1  ZINC000962730513    0.1400
     10 C10        -6.6663    0.1135   51.6614 C.3     1  ZINC000962730513   -0.1700
     11 H11        -6.4527   -0.9228   51.9232 H       1  ZINC000962730513    0.1200
     12 C12        -6.1874    0.6162   50.2826 C.3     1  ZINC000962730513    0.0700
     13 N13        -5.2115    1.6920   50.5945 N.3     1  ZINC000962730513   -0.5000
     14 C14        -5.0368    2.5932   49.4476 C.3     1  ZINC000962730513    0.1100
     15 C15        -3.6059    2.5371   48.9781 C.ar    1  ZINC000962730513    0.3200
     16 N16        -2.6557    3.0116   49.7585 N.ar    1  ZINC000962730513   -0.5100
     17 C17        -1.3882    2.9794   49.3796 C.ar    1  ZINC000962730513    0.1500
     18 C18        -1.0671    2.4376   48.1450 C.ar    1  ZINC000962730513   -0.1900
     19 C19         0.3638    2.3811   47.6757 C.3     1  ZINC000962730513   -0.1100
     20 C20        -2.0937    1.9487   47.3525 C.ar    1  ZINC000962730513    0.1500
     21 N21        -3.3375    2.0101   47.8003 N.ar    1  ZINC000962730513   -0.5000
     22 C22        -5.8147    2.4088   51.7476 C.3     1  ZINC000962730513    0.0700
     23 C23        -6.4192    1.2680   52.6522 C.3     1  ZINC000962730513   -0.1700
     24 H24        -5.9881    1.1275   53.6434 H       1  ZINC000962730513    0.1300
     25 S25       -10.8305   -1.2078   55.3018 S.3     1  ZINC000962730513    0.1900
     26 C26       -11.0239   -1.4897   56.9734 C.2     1  ZINC000962730513   -0.2200
     27 C27       -10.1506   -0.7671   57.6848 C.2     1  ZINC000962730513   -0.1500
     28 H28        -8.6906    0.2962   59.5687 H       1  ZINC000962730513    0.0600
     29 H29        -7.4166   -0.6449   58.7566 H       1  ZINC000962730513    0.0500
     30 H30        -7.0709    0.9993   59.3440 H       1  ZINC000962730513    0.0600
     31 H31        -8.6791    1.9250   57.6991 H       1  ZINC000962730513    0.1000
     32 H32        -7.4050    0.9839   56.8870 H       1  ZINC000962730513    0.0700
     33 H33        -8.9361   -0.7843   53.1668 H       1  ZINC000962730513    0.4000
     34 H34        -5.7018   -0.1894   49.7318 H       1  ZINC000962730513    0.0900
     35 H35        -7.0252    1.0168   49.7120 H       1  ZINC000962730513    0.0500
     36 H36        -5.6973    2.2830   48.6379 H       1  ZINC000962730513    0.1000
     37 H37        -5.2816    3.6125   49.7459 H       1  ZINC000962730513    0.0700
     38 H38        -0.6144    3.3702   50.0238 H       1  ZINC000962730513    0.1700
     39 H39         0.8144    1.4418   47.9961 H       1  ZINC000962730513    0.0800
     40 H40         0.3922    2.4453   46.5879 H       1  ZINC000962730513    0.0700
     41 H41         0.9197    3.2154   48.1035 H       1  ZINC000962730513    0.0700
     42 H42        -1.8811    1.5200   46.3844 H       1  ZINC000962730513    0.1700
     43 H43        -5.0485    2.9527   52.3000 H       1  ZINC000962730513    0.0800
     44 H44        -6.5942    3.0898   51.4063 H       1  ZINC000962730513    0.0600
     45 H45       -11.7511   -2.1644   57.4003 H       1  ZINC000962730513    0.1700
     46 H46       -10.1108   -0.8039   58.7634 H       1  ZINC000962730513    0.1500
@<TRIPOS>BOND
     1     1     2    1
     2     1    28    1
     3     1    29    1
     4     1    30    1
     5     2     3    1
     6     2    31    1
     7     2    32    1
     8     3    27    1
     9     3     4    2
    10     4     5    1
    11     4    25    1
    12     5     6    2
    13     5     7   am
    14     7     8    1
    15     7    33    1
    16     8     9    1
    17     8    23    1
    18     8    10    1
    19    10    11    1
    20    10    23    1
    21    10    12    1
    22    12    13    1
    23    12    34    1
    24    12    35    1
    25    13    14    1
    26    13    22    1
    27    14    15    1
    28    14    36    1
    29    14    37    1
    30    15    21   ar
    31    15    16   ar
    32    16    17   ar
    33    17    18   ar
    34    17    38    1
    35    18    19    1
    36    18    20   ar
    37    19    39    1
    38    19    40    1
    39    19    41    1
    40    20    21   ar
    41    20    42    1
    42    22    23    1
    43    22    43    1
    44    22    44    1
    45    23    24    1
    46    25    26    1
    47    26    27    2
    48    26    45    1
    49    27    46    1
@<TRIPOS>SUBSTRUCTURE
     1 ZINC000962730513        1 TEMP              0 ****  ****    0 ROOT


##########                                Name:    ZINC000822449555
##########                DOCK_Rotatable_Bonds:                   5
##########                         Heavy_Atoms:                  27
##########                    Molecular_Weight:             366.383
##########                DOCK_Rotatable_Bonds:                   5
##########                       Formal_Charge:          -0.0100009
##########                     HBond_Acceptors:                  10
##########                        HBond_Donors:                   2
##########                         Heavy_Atoms:                  27
##########                          Grid_Score:          -33.378147
##########                     Grid_vdw_energy:          -33.019100
##########                      Grid_es_energy:           -0.359046
##########           Internal_energy_repulsive:            8.429131

@<TRIPOS>MOLECULE
ZINC000822449555
 45 48 1 0 0
SMALL
USER_CHARGES


@<TRIPOS>ATOM
      1 C1        -12.5649    0.2562   54.3576 C.3     1  ZINC000822449555   -0.1100
      2 C2        -12.2192   -0.8416   55.3305 C.ar    1  ZINC000822449555    0.1400
      3 N3        -13.0942   -1.1955   56.2522 N.ar    1  ZINC000822449555   -0.5000
      4 C4        -12.8335   -2.1542   57.1271 C.ar    1  ZINC000822449555    0.3000
      5 N5        -13.7885   -2.4930   58.0818 N.3     1  ZINC000822449555   -0.4700
      6 C6        -14.5504   -3.6799   57.6668 C.3     1  ZINC000822449555    0.0200
      7 C7        -15.5456   -4.0520   58.7689 C.3     1  ZINC000822449555    0.0600
      8 O8        -16.3928   -2.9315   59.0374 O.3     1  ZINC000822449555   -0.3800
      9 C9        -15.6838   -1.7582   59.4450 C.3     1  ZINC000822449555    0.0600
     10 C10       -14.6899   -1.3629   58.3496 C.3     1  ZINC000822449555    0.0300
     11 C11       -11.6165   -2.8269   57.1031 C.ar    1  ZINC000822449555   -0.1700
     12 C12       -10.6747   -2.4827   56.1508 C.ar    1  ZINC000822449555   -0.0500
     13 C13       -10.9871   -1.4720   55.2431 C.ar    1  ZINC000822449555    0.0600
     14 N14       -10.0633   -1.0903   54.2612 N.am    1  ZINC000822449555   -0.6600
     15 C15        -9.1220   -0.1681   54.5437 C.2     1  ZINC000822449555    0.5700
     16 O16        -9.0744    0.3329   55.6506 O.2     1  ZINC000822449555   -0.5100
     17 C17        -8.1482    0.2342   53.5086 C.ar    1  ZINC000822449555   -0.1800
     18 C18        -8.1496   -0.3868   52.2522 C.ar    1  ZINC000822449555   -0.0100
     19 C19        -7.2201    0.0230   51.3165 C.ar    1  ZINC000822449555   -0.1300
     20 C20        -6.3184    1.0327   51.6498 C.ar    1  ZINC000822449555    0.2300
     21 C21        -5.3169    1.4788   50.6507 C.2     1  ZINC000822449555    0.2100
     22 N22        -4.4006    2.4125   50.8165 N.2     1  ZINC000822449555   -0.2500
     23 N23        -3.7283    2.5040   49.7209 N.pl3   1  ZINC000822449555   -0.2200
     24 N24        -4.1890    1.6586   48.8664 N.2     1  ZINC000822449555   -0.0400
     25 N25        -5.1633    1.0070   49.4049 N.2     1  ZINC000822449555   -0.2500
     26 N26        -6.3446    1.6007   52.8496 N.ar    1  ZINC000822449555   -0.4500
     27 C27        -7.2169    1.2428   53.7662 C.ar    1  ZINC000822449555    0.1400
     28 H28       -13.0495   -0.1743   53.4813 H       1  ZINC000822449555    0.0800
     29 H29       -13.2413    0.9652   54.8352 H       1  ZINC000822449555    0.0800
     30 H30       -11.6542    0.7717   54.0527 H       1  ZINC000822449555    0.0700
     31 H31       -15.0916   -3.4614   56.7462 H       1  ZINC000822449555    0.0600
     32 H32       -13.8658   -4.5113   57.4987 H       1  ZINC000822449555    0.1000
     33 H33       -16.1520   -4.8966   58.4418 H       1  ZINC000822449555    0.1100
     34 H34       -15.0019   -4.3224   59.6742 H       1  ZINC000822449555    0.0600
     35 H35       -16.3901   -0.9440   59.6067 H       1  ZINC000822449555    0.1000
     36 H36       -15.1441   -1.9619   60.3698 H       1  ZINC000822449555    0.0600
     37 H37       -14.1072   -0.5030   58.6798 H       1  ZINC000822449555    0.1000
     38 H38       -15.2335   -1.1074   57.4400 H       1  ZINC000822449555    0.0600
     39 H39       -11.4095   -3.6081   57.8195 H       1  ZINC000822449555    0.1400
     40 H40        -9.7210   -2.9879   56.1088 H       1  ZINC000822449555    0.1500
     41 H41       -10.1012   -1.4900   53.3782 H       1  ZINC000822449555    0.4100
     42 H42        -8.8598   -1.1670   52.0215 H       1  ZINC000822449555    0.1600
     43 H43        -7.1919   -0.4336   50.3382 H       1  ZINC000822449555    0.1600
     44 H44        -2.9908    3.1142   49.5646 H       1  ZINC000822449555    0.4800
     45 H45        -7.2078    1.7280   54.7310 H       1  ZINC000822449555    0.1700
@<TRIPOS>BOND
     1     1     2    1
     2     1    28    1
     3     1    29    1
     4     1    30    1
     5     2    13   ar
     6     2     3   ar
     7     3     4   ar
     8     4     5    1
     9     4    11   ar
    10     5    10    1
    11     5     6    1
    12     6     7    1
    13     6    31    1
    14     6    32    1
    15     7     8    1
    16     7    33    1
    17     7    34    1
    18     8     9    1
    19     9    10    1
    20     9    35    1
    21     9    36    1
    22    10    37    1
    23    10    38    1
    24    11    12   ar
    25    11    39    1
    26    12    13   ar
    27    12    40    1
    28    13    14    1
    29    14    15   am
    30    14    41    1
    31    15    16    2
    32    15    17    1
    33    17    27   ar
    34    17    18   ar
    35    18    19   ar
    36    18    42    1
    37    19    20   ar
    38    19    43    1
    39    20    21    1
    40    20    26   ar
    41    21    25    1
    42    21    22    2
    43    22    23    1
    44    23    24    1
    45    23    44    1
    46    24    25    2
    47    26    27   ar
    48    27    45    1
@<TRIPOS>SUBSTRUCTURE
     1 ZINC000822449555        1 TEMP              0 ****  ****    0 ROOT


##########                                Name:    ZINC000668548901
##########                DOCK_Rotatable_Bonds:                   9
##########                         Heavy_Atoms:                  26
##########                    Molecular_Weight:             374.464
##########                DOCK_Rotatable_Bonds:                   9
##########                       Formal_Charge:         3.53903e-07
##########                     HBond_Acceptors:                   8
##########                        HBond_Donors:                   3
##########                         Heavy_Atoms:                  26
##########                          Grid_Score:          -33.374386
##########                     Grid_vdw_energy:          -31.847815
##########                      Grid_es_energy:           -1.526571
##########           Internal_energy_repulsive:           11.751657

@<TRIPOS>MOLECULE
ZINC000668548901
 48 50 1 0 0
SMALL
USER_CHARGES


@<TRIPOS>ATOM
      1 O1         -8.6259    1.3815   55.2197 O.2     1  ZINC000668548901   -0.5700
      2 C2         -7.4285    1.4870   55.0371 C.2     1  ZINC000668548901    0.7100
      3 N3         -6.6121    1.7742   56.0704 N.am    1  ZINC000668548901   -0.6800
      4 C4         -7.1418    1.9558   57.3488 C.ar    1  ZINC000668548901    0.2200
      5 C5         -7.5339    3.2217   57.7871 C.ar    1  ZINC000668548901   -0.1700
      6 C6         -8.0529    3.3640   59.0562 C.ar    1  ZINC000668548901    0.1200
      7 N7         -8.1822    2.3227   59.8571 N.ar    1  ZINC000668548901   -0.4300
      8 C8         -7.8224    1.1035   59.4809 C.ar    1  ZINC000668548901    0.1100
      9 S9         -8.0201   -0.2470   60.5953 S.3     1  ZINC000668548901    0.0900
     10 C10        -9.0613    0.4229   61.8491 C.ar    1  ZINC000668548901    0.0900
     11 C11       -10.4433    0.3633   61.7020 C.ar    1  ZINC000668548901   -0.1500
     12 C12       -11.2488    0.8927   62.6943 C.ar    1  ZINC000668548901   -0.0700
     13 C13       -10.6428    1.4659   63.8044 C.ar    1  ZINC000668548901   -0.1700
     14 C14        -9.2644    1.4909   63.8852 C.ar    1  ZINC000668548901    0.1000
     15 N15        -8.5211    0.9737   62.9259 N.ar    1  ZINC000668548901   -0.4200
     16 C16        -7.2972    0.8790   58.2154 C.ar    1  ZINC000668548901   -0.1800
     17 N17        -6.9170    1.3115   53.8027 N.am    1  ZINC000668548901   -0.7200
     18 C18        -7.8044    0.9994   52.6797 C.3     1  ZINC000668548901    0.1700
     19 H19        -8.6945    1.6262   52.7349 H       1  ZINC000668548901    0.1000
     20 C20        -8.2127   -0.4736   52.7463 C.3     1  ZINC000668548901    0.0600
     21 O21        -9.0758   -0.7788   51.6492 O.3     1  ZINC000668548901   -0.5700
     22 C22        -7.0733    1.2669   51.3624 C.3     1  ZINC000668548901   -0.1300
     23 H23        -7.7234    1.0093   50.5263 H       1  ZINC000668548901    0.1000
     24 C24        -5.8002    0.4173   51.3018 C.3     1  ZINC000668548901   -0.1200
     25 C25        -5.0378    0.7508   50.0159 C.3     1  ZINC000668548901   -0.1600
     26 C26        -4.7367    2.2517   49.9851 C.3     1  ZINC000668548901    0.0600
     27 O27        -5.9607    2.9835   50.0758 O.3     1  ZINC000668548901   -0.3800
     28 C28        -6.6951    2.7480   51.2789 C.3     1  ZINC000668548901    0.0700
     29 H29        -5.6563    1.8544   55.9255 H       1  ZINC000668548901    0.4100
     30 H30        -7.4315    4.0800   57.1395 H       1  ZINC000668548901    0.1500
     31 H31        -8.3579    4.3414   59.4001 H       1  ZINC000668548901    0.1600
     32 H32       -10.8815   -0.0896   60.8250 H       1  ZINC000668548901    0.1400
     33 H33       -12.3249    0.8613   62.6074 H       1  ZINC000668548901    0.1400
     34 H34       -11.2433    1.8883   64.5964 H       1  ZINC000668548901    0.1400
     35 H35        -8.7890    1.9361   64.7467 H       1  ZINC000668548901    0.1600
     36 H36        -7.0050   -0.1154   57.9117 H       1  ZINC000668548901    0.1400
     37 H37        -5.9612    1.3918   53.6578 H       1  ZINC000668548901    0.4000
     38 H38        -7.3223   -1.1001   52.6935 H       1  ZINC000668548901    0.0500
     39 H39        -8.7355   -0.6636   53.6837 H       1  ZINC000668548901    0.0600
     40 H40        -9.3490   -1.7055   51.6096 H       1  ZINC000668548901    0.3800
     41 H41        -5.1729    0.6382   52.1654 H       1  ZINC000668548901    0.0700
     42 H42        -6.0668   -0.6396   51.3040 H       1  ZINC000668548901    0.0700
     43 H43        -4.1026    0.1913   49.9913 H       1  ZINC000668548901    0.0800
     44 H44        -5.6461    0.4836   49.1519 H       1  ZINC000668548901    0.0700
     45 H45        -4.0948    2.5110   50.8270 H       1  ZINC000668548901    0.0500
     46 H46        -4.2317    2.5020   49.0521 H       1  ZINC000668548901    0.1000
     47 H47        -7.5996    3.3563   51.2776 H       1  ZINC000668548901    0.1000
     48 H48        -6.0796    3.0136   52.1383 H       1  ZINC000668548901    0.0500
@<TRIPOS>BOND
     1     1     2    2
     2     2     3   am
     3     2    17   am
     4     3     4    1
     5     3    29    1
     6     4    16   ar
     7     4     5   ar
     8     5     6   ar
     9     5    30    1
    10     6     7   ar
    11     6    31    1
    12     7     8   ar
    13     8     9    1
    14     8    16   ar
    15     9    10    1
    16    10    15   ar
    17    10    11   ar
    18    11    12   ar
    19    11    32    1
    20    12    13   ar
    21    12    33    1
    22    13    14   ar
    23    13    34    1
    24    14    15   ar
    25    14    35    1
    26    16    36    1
    27    17    18    1
    28    17    37    1
    29    18    19    1
    30    18    20    1
    31    18    22    1
    32    20    21    1
    33    20    38    1
    34    20    39    1
    35    21    40    1
    36    22    23    1
    37    22    28    1
    38    22    24    1
    39    24    25    1
    40    24    41    1
    41    24    42    1
    42    25    26    1
    43    25    43    1
    44    25    44    1
    45    26    27    1
    46    26    45    1
    47    26    46    1
    48    27    28    1
    49    28    47    1
    50    28    48    1
@<TRIPOS>SUBSTRUCTURE
     1 ZINC000668548901        1 TEMP              0 ****  ****    0 ROOT


##########                                Name:    ZINC000506156755
##########                DOCK_Rotatable_Bonds:                   7
##########                         Heavy_Atoms:                  30
##########                    Molecular_Weight:             400.434
##########                DOCK_Rotatable_Bonds:                   7
##########                       Formal_Charge:          -0.0200001
##########                     HBond_Acceptors:                   6
##########                        HBond_Donors:                   1
##########                         Heavy_Atoms:                  30
##########                          Grid_Score:          -33.347221
##########                     Grid_vdw_energy:          -33.191196
##########                      Grid_es_energy:           -0.156026
##########           Internal_energy_repulsive:           12.436101

@<TRIPOS>MOLECULE
ZINC000506156755
 50 53 1 0 0
SMALL
USER_CHARGES


@<TRIPOS>ATOM
      1 C1        -10.4083    1.9946   56.5846 C.3     1  ZINC000506156755   -0.1600
      2 C2         -9.7327    0.7465   56.0131 C.3     1  ZINC000506156755    0.1900
      3 H3         -8.6584    0.8023   56.1884 H       1  ZINC000506156755    0.1000
      4 N4         -9.9892    0.6686   54.5728 N.am    1  ZINC000506156755   -0.7200
      5 C5         -9.1545    1.2755   53.7059 C.2     1  ZINC000506156755    0.5000
      6 O6         -8.1920    1.8873   54.1183 O.2     1  ZINC000506156755   -0.5200
      7 C7         -9.4173    1.1939   52.2242 C.3     1  ZINC000506156755    0.0900
      8 N8         -8.1575    1.3594   51.4951 N.am    1  ZINC000506156755   -0.5600
      9 C9         -7.7011    2.5327   51.0209 C.2     1  ZINC000506156755    0.5800
     10 O10        -8.2594    3.6059   51.1277 O.2     1  ZINC000506156755   -0.4600
     11 C11        -6.4058    2.2971   50.3487 C.ar    1  ZINC000506156755   -0.1400
     12 C12        -5.4954    3.1082   49.6913 C.ar    1  ZINC000506156755   -0.0400
     13 C13        -4.3419    2.5545   49.1571 C.ar    1  ZINC000506156755   -0.0900
     14 C14        -4.0949    1.2002   49.2763 C.ar    1  ZINC000506156755   -0.0900
     15 C15        -4.9971    0.3761   49.9316 C.ar    1  ZINC000506156755   -0.0400
     16 C16        -6.1539    0.9153   50.4702 C.ar    1  ZINC000506156755   -0.1400
     17 C17        -7.3022    0.3591   51.2166 C.2     1  ZINC000506156755    0.5800
     18 O18        -7.4497   -0.8062   51.5251 O.2     1  ZINC000506156755   -0.4600
     19 C19       -10.2890   -0.4800   56.6894 C.ar    1  ZINC000506156755   -0.1200
     20 C20       -11.2144   -1.2700   56.0359 C.ar    1  ZINC000506156755   -0.0800
     21 C21       -11.7249   -2.3958   56.6557 C.ar    1  ZINC000506156755   -0.1400
     22 C22       -11.3105   -2.7339   57.9306 C.ar    1  ZINC000506156755   -0.0800
     23 C23       -10.3850   -1.9471   58.5888 C.ar    1  ZINC000506156755   -0.1900
     24 C24        -9.8673   -0.8200   57.9672 C.ar    1  ZINC000506156755    0.1300
     25 O25        -8.9566   -0.0447   58.6121 O.3     1  ZINC000506156755   -0.2500
     26 C26        -9.0118    0.0098   59.9687 C.ar    1  ZINC000506156755    0.0800
     27 C27        -7.8995   -0.3328   60.7240 C.ar    1  ZINC000506156755   -0.1400
     28 C28        -7.9584   -0.2767   62.1030 C.ar    1  ZINC000506156755   -0.1000
     29 C29        -9.1246    0.1205   62.7307 C.ar    1  ZINC000506156755   -0.1200
     30 C30       -10.2346    0.4623   61.9804 C.ar    1  ZINC000506156755   -0.1000
     31 C31       -10.1792    0.4134   60.6010 C.ar    1  ZINC000506156755   -0.1200
     32 H32       -10.0060    2.8818   56.0954 H       1  ZINC000506156755    0.0700
     33 H33       -11.4826    1.9388   56.4094 H       1  ZINC000506156755    0.0600
     34 H34       -10.2175    2.0526   57.6563 H       1  ZINC000506156755    0.0700
     35 H35       -10.7597    0.1802   54.2430 H       1  ZINC000506156755    0.4000
     36 H36        -9.8506    0.2227   51.9851 H       1  ZINC000506156755    0.1300
     37 H37       -10.1113    1.9828   51.9343 H       1  ZINC000506156755    0.1300
     38 H38        -5.6835    4.1673   49.5948 H       1  ZINC000506156755    0.1400
     39 H39        -3.6318    3.1860   48.6441 H       1  ZINC000506156755    0.1400
     40 H40        -3.1930    0.7805   48.8557 H       1  ZINC000506156755    0.1400
     41 H41        -4.7987   -0.6817   50.0221 H       1  ZINC000506156755    0.1400
     42 H42       -11.5401   -1.0079   55.0400 H       1  ZINC000506156755    0.1300
     43 H43       -12.4488   -3.0119   56.1431 H       1  ZINC000506156755    0.1300
     44 H44       -11.7109   -3.6135   58.4127 H       1  ZINC000506156755    0.1300
     45 H45       -10.0618   -2.2114   59.5848 H       1  ZINC000506156755    0.1300
     46 H46        -6.9884   -0.6434   60.2342 H       1  ZINC000506156755    0.1300
     47 H47        -7.0929   -0.5435   62.6913 H       1  ZINC000506156755    0.1300
     48 H48        -9.1688    0.1634   63.8090 H       1  ZINC000506156755    0.1300
     49 H49       -11.1444    0.7723   62.4732 H       1  ZINC000506156755    0.1300
     50 H50       -11.0463    0.6808   60.0154 H       1  ZINC000506156755    0.1300
@<TRIPOS>BOND
     1     1     2    1
     2     1    32    1
     3     1    33    1
     4     1    34    1
     5     2     3    1
     6     2     4    1
     7     2    19    1
     8     4     5   am
     9     4    35    1
    10     5     6    2
    11     5     7    1
    12     7     8    1
    13     7    36    1
    14     7    37    1
    15     8    17   am
    16     8     9   am
    17     9    10    2
    18     9    11    1
    19    11    16   ar
    20    11    12   ar
    21    12    13   ar
    22    12    38    1
    23    13    14   ar
    24    13    39    1
    25    14    15   ar
    26    14    40    1
    27    15    16   ar
    28    15    41    1
    29    16    17    1
    30    17    18    2
    31    19    24   ar
    32    19    20   ar
    33    20    21   ar
    34    20    42    1
    35    21    22   ar
    36    21    43    1
    37    22    23   ar
    38    22    44    1
    39    23    24   ar
    40    23    45    1
    41    24    25    1
    42    25    26    1
    43    26    31   ar
    44    26    27   ar
    45    27    28   ar
    46    27    46    1
    47    28    29   ar
    48    28    47    1
    49    29    30   ar
    50    29    48    1
    51    30    31   ar
    52    30    49    1
    53    31    50    1
@<TRIPOS>SUBSTRUCTURE
     1 ZINC000506156755        1 TEMP              0 ****  ****    0 ROOT


##########                                Name:    ZINC001078748831
##########                DOCK_Rotatable_Bonds:                   6
##########                         Heavy_Atoms:                  23
##########                    Molecular_Weight:             333.417
##########                DOCK_Rotatable_Bonds:                   6
##########                       Formal_Charge:           0.0299999
##########                     HBond_Acceptors:                   9
##########                        HBond_Donors:                   2
##########                         Heavy_Atoms:                  23
##########                          Grid_Score:          -33.327389
##########                     Grid_vdw_energy:          -31.658026
##########                      Grid_es_energy:           -1.669364
##########           Internal_energy_repulsive:            8.462972

@<TRIPOS>MOLECULE
ZINC001078748831
 42 45 1 0 0
SMALL
USER_CHARGES


@<TRIPOS>ATOM
      1 C1        -12.0734    5.3978   47.2285 C.3     1  ZINC001078748831    0.1000
      2 N2        -10.7277    5.2752   47.7945 N.pl3   1  ZINC001078748831   -0.1400
      3 N3         -9.6982    5.9147   47.3669 N.2     1  ZINC001078748831   -0.2900
      4 C4         -8.6558    5.5795   48.0884 C.2     1  ZINC001078748831    0.0400
      5 C5         -9.1281    4.6479   49.0344 C.2     1  ZINC001078748831   -0.0500
      6 C6         -8.3445    3.9643   50.0847 C.2     1  ZINC001078748831    0.6200
      7 O7         -8.9010    3.2285   50.8763 O.2     1  ZINC001078748831   -0.5200
      8 N8         -7.0129    4.1567   50.1648 N.am    1  ZINC001078748831   -0.7000
      9 C9         -6.2365    3.4803   51.2070 C.3     1  ZINC001078748831    0.1500
     10 H10        -6.8325    3.2303   52.0847 H       1  ZINC001078748831    0.1100
     11 C11        -4.9082    4.1829   51.5418 C.3     1  ZINC001078748831   -0.1800
     12 C12        -4.2587    3.3178   50.4464 C.3     1  ZINC001078748831    0.0800
     13 H13        -4.2805    3.7753   49.4573 H       1  ZINC001078748831    0.1000
     14 N14        -2.9307    2.8056   50.8097 N.3     1  ZINC001078748831   -0.6700
     15 C15        -1.8718    3.5425   50.1070 C.3     1  ZINC001078748831    0.1400
     16 C16        -1.4971    2.8047   48.8475 C.2     1  ZINC001078748831    0.0600
     17 N17        -0.2725    2.6730   48.4190 N.2     1  ZINC001078748831   -0.5700
     18 S18        -0.3003    1.8498   47.0941 S.3     1  ZINC001078748831    0.6800
     19 N19        -1.8395    1.6181   46.9911 N.2     1  ZINC001078748831   -0.5700
     20 C20        -2.4107    2.1851   48.0174 C.2     1  ZINC001078748831    0.0500
     21 C21        -5.3930    2.3162   50.6858 C.3     1  ZINC001078748831   -0.1000
     22 C22        -5.1730    1.0586   51.5272 C.3     1  ZINC001078748831   -0.1000
     23 C23        -6.2567    0.3935   50.6594 C.3     1  ZINC001078748831   -0.1400
     24 C24        -5.8997    1.4119   49.5617 C.3     1  ZINC001078748831   -0.1200
     25 N25       -10.4228    4.5178   48.7879 N.2     1  ZINC001078748831   -0.2500
     26 H26       -12.6101    6.1984   47.7376 H       1  ZINC001078748831    0.1000
     27 H27       -12.0009    5.6278   46.1655 H       1  ZINC001078748831    0.1100
     28 H28       -12.6104    4.4586   47.3613 H       1  ZINC001078748831    0.1100
     29 H29        -7.6443    5.9420   47.9797 H       1  ZINC001078748831    0.2100
     30 H30        -6.5687    4.7428   49.5325 H       1  ZINC001078748831    0.4100
     31 H31        -4.9087    5.2486   51.3127 H       1  ZINC001078748831    0.0700
     32 H32        -4.5405    3.9652   52.5446 H       1  ZINC001078748831    0.1000
     33 H33        -2.7917    2.8375   51.8086 H       1  ZINC001078748831    0.3500
     34 H34        -2.2312    4.5392   49.8511 H       1  ZINC001078748831    0.1000
     35 H35        -0.9976    3.6263   50.7527 H       1  ZINC001078748831    0.0600
     36 H36        -3.4761    2.1763   48.1945 H       1  ZINC001078748831    0.2000
     37 H37        -4.1834    0.6182   51.4051 H       1  ZINC001078748831    0.1000
     38 H38        -5.4600    1.1756   52.5721 H       1  ZINC001078748831    0.0700
     39 H39        -6.0272   -0.6373   50.3893 H       1  ZINC001078748831    0.0700
     40 H40        -7.2657    0.5134   51.0540 H       1  ZINC001078748831    0.0800
     41 H41        -6.7674    1.8113   49.0365 H       1  ZINC001078748831    0.0700
     42 H42        -5.1144    1.0709   48.8870 H       1  ZINC001078748831    0.0900
@<TRIPOS>BOND
     1     1     2    1
     2     1    26    1
     3     1    27    1
     4     1    28    1
     5     2    25    1
     6     2     3    1
     7     3     4    2
     8     4     5    1
     9     4    29    1
    10     5     6    1
    11     5    25    2
    12     6     7    2
    13     6     8   am
    14     8     9    1
    15     8    30    1
    16     9    10    1
    17     9    21    1
    18     9    11    1
    19    11    12    1
    20    11    31    1
    21    11    32    1
    22    12    13    1
    23    12    14    1
    24    12    21    1
    25    14    15    1
    26    14    33    1
    27    15    16    1
    28    15    34    1
    29    15    35    1
    30    16    20    1
    31    16    17    2
    32    17    18    1
    33    18    19    1
    34    19    20    2
    35    20    36    1
    36    21    24    1
    37    21    22    1
    38    22    23    1
    39    22    37    1
    40    22    38    1
    41    23    24    1
    42    23    39    1
    43    23    40    1
    44    24    41    1
    45    24    42    1
@<TRIPOS>SUBSTRUCTURE
     1 ZINC001078748831        1 TEMP              0 ****  ****    0 ROOT


##########                                Name:    ZINC000536173632
##########                DOCK_Rotatable_Bonds:                   7
##########                         Heavy_Atoms:                  29
##########                    Molecular_Weight:             407.389
##########                DOCK_Rotatable_Bonds:                   7
##########                       Formal_Charge:        -2.98023e-07
##########                     HBond_Acceptors:                   8
##########                        HBond_Donors:                   0
##########                         Heavy_Atoms:                  29
##########                          Grid_Score:          -33.318226
##########                     Grid_vdw_energy:          -32.673389
##########                      Grid_es_energy:           -0.644838
##########           Internal_energy_repulsive:           15.348024

@<TRIPOS>MOLECULE
ZINC000536173632
 49 51 1 0 0
SMALL
USER_CHARGES


@<TRIPOS>ATOM
      1 C1         -8.3541   -0.1263   61.7654 C.3     1  ZINC000536173632    0.0400
      2 O2         -8.3355    1.0269   60.8833 O.3     1  ZINC000536173632   -0.3500
      3 C3         -7.7916    0.8547   59.6630 C.2     1  ZINC000536173632    0.5100
      4 O4         -7.2550   -0.1977   59.3802 O.2     1  ZINC000536173632   -0.5000
      5 C5         -7.8478    1.9458   58.6686 C.ar    1  ZINC000536173632   -0.1300
      6 C6         -8.4587    3.1587   58.9922 C.ar    1  ZINC000536173632   -0.0600
      7 C7         -8.5077    4.1734   58.0588 C.ar    1  ZINC000536173632   -0.1300
      8 C8         -7.9537    3.9909   56.8044 C.ar    1  ZINC000536173632   -0.0700
      9 C9         -7.3467    2.7912   56.4769 C.ar    1  ZINC000536173632   -0.0800
     10 C10        -6.7459    2.6017   55.1078 C.3     1  ZINC000536173632   -0.1000
     11 C11        -7.6054    1.6565   54.3086 C.2     1  ZINC000536173632    0.5200
     12 O12        -8.5421    1.0952   54.8362 O.2     1  ZINC000536173632   -0.5200
     13 N13        -7.3329    1.4347   53.0074 N.am    1  ZINC000536173632   -0.6200
     14 C14        -8.1578    0.5162   52.2065 C.3     1  ZINC000536173632    0.0700
     15 C15        -7.2275   -0.4692   51.4900 C.3     1  ZINC000536173632    0.0500
     16 O16        -6.2224    0.2615   50.7832 O.3     1  ZINC000536173632   -0.3700
     17 C17        -5.3670    1.0415   51.6221 C.3     1  ZINC000536173632    0.1200
     18 H18        -4.8875    0.3938   52.3560 H       1  ZINC000536173632    0.0800
     19 C19        -4.3138    1.7146   50.7802 C.ar    1  ZINC000536173632   -0.0900
     20 C20        -4.4195    1.7036   49.4022 C.ar    1  ZINC000536173632   -0.0600
     21 C21        -3.4532    2.3211   48.6298 C.ar    1  ZINC000536173632   -0.1200
     22 C22        -2.3818    2.9497   49.2357 C.ar    1  ZINC000536173632   -0.0700
     23 C23        -2.2766    2.9616   50.6142 C.ar    1  ZINC000536173632   -0.1800
     24 C24        -1.1082    3.6466   51.2750 C.3     1  ZINC000536173632    0.5100
     25 F25        -0.0494    2.7415   51.4047 F       1  ZINC000536173632   -0.1800
     26 F26        -0.7004    4.7321   50.4921 F       1  ZINC000536173632   -0.1800
     27 F27        -1.4899    4.1024   52.5413 F       1  ZINC000536173632   -0.1800
     28 C28        -3.2448    2.3480   51.3865 C.ar    1  ZINC000536173632   -0.0500
     29 C29        -6.2055    2.1086   52.3440 C.3     1  ZINC000536173632    0.0900
     30 C30        -7.2851    1.7706   57.4026 C.ar    1  ZINC000536173632   -0.0400
     31 H31        -8.9255   -0.9299   61.3009 H       1  ZINC000536173632    0.0600
     32 H32        -7.3330   -0.4631   61.9447 H       1  ZINC000536173632    0.0600
     33 H33        -8.8177    0.1485   62.7129 H       1  ZINC000536173632    0.1000
     34 H34        -8.8922    3.3022   59.9710 H       1  ZINC000536173632    0.1400
     35 H35        -8.9800    5.1123   58.3079 H       1  ZINC000536173632    0.1400
     36 H36        -7.9954    4.7884   56.0771 H       1  ZINC000536173632    0.1300
     37 H37        -6.6927    3.5637   54.5980 H       1  ZINC000536173632    0.1100
     38 H38        -5.7429    2.1863   55.2057 H       1  ZINC000536173632    0.1100
     39 H39        -8.8384   -0.0301   52.8596 H       1  ZINC000536173632    0.1000
     40 H40        -8.7293    1.0825   51.4712 H       1  ZINC000536173632    0.0800
     41 H41        -6.7547   -1.1225   52.2234 H       1  ZINC000536173632    0.0600
     42 H42        -7.8047   -1.0686   50.7860 H       1  ZINC000536173632    0.1100
     43 H43        -5.2567    1.2124   48.9287 H       1  ZINC000536173632    0.1400
     44 H44        -3.5354    2.3118   47.5530 H       1  ZINC000536173632    0.1400
     45 H45        -1.6266    3.4315   48.6324 H       1  ZINC000536173632    0.1400
     46 H46        -3.1627    2.3573   52.4633 H       1  ZINC000536173632    0.1400
     47 H47        -6.5784    2.8338   51.6206 H       1  ZINC000536173632    0.0800
     48 H48        -5.5923    2.6150   53.0894 H       1  ZINC000536173632    0.1100
     49 H49        -6.8108    0.8350   57.1459 H       1  ZINC000536173632    0.1400
@<TRIPOS>BOND
     1     1     2    1
     2     1    31    1
     3     1    32    1
     4     1    33    1
     5     2     3    1
     6     3     4    2
     7     3     5    1
     8     5    30   ar
     9     5     6   ar
    10     6     7   ar
    11     6    34    1
    12     7     8   ar
    13     7    35    1
    14     8     9   ar
    15     8    36    1
    16     9    10    1
    17     9    30   ar
    18    10    11    1
    19    10    37    1
    20    10    38    1
    21    11    12    2
    22    11    13   am
    23    13    29    1
    24    13    14    1
    25    14    15    1
    26    14    39    1
    27    14    40    1
    28    15    16    1
    29    15    41    1
    30    15    42    1
    31    16    17    1
    32    17    18    1
    33    17    19    1
    34    17    29    1
    35    19    28   ar
    36    19    20   ar
    37    20    21   ar
    38    20    43    1
    39    21    22   ar
    40    21    44    1
    41    22    23   ar
    42    22    45    1
    43    23    24    1
    44    23    28   ar
    45    24    25    1
    46    24    26    1
    47    24    27    1
    48    28    46    1
    49    29    47    1
    50    29    48    1
    51    30    49    1
@<TRIPOS>SUBSTRUCTURE
     1 ZINC000536173632        1 TEMP              0 ****  ****    0 ROOT


##########                                Name:    ZINC001369071670
##########                DOCK_Rotatable_Bonds:                   8
##########                         Heavy_Atoms:                  24
##########                    Molecular_Weight:             335.366
##########                DOCK_Rotatable_Bonds:                   8
##########                       Formal_Charge:        -2.90573e-07
##########                     HBond_Acceptors:                  10
##########                        HBond_Donors:                   1
##########                         Heavy_Atoms:                  24
##########                          Grid_Score:          -33.314808
##########                     Grid_vdw_energy:          -32.268089
##########                      Grid_es_energy:           -1.046719
##########           Internal_energy_repulsive:           10.536363

@<TRIPOS>MOLECULE
ZINC001369071670
 45 47 1 0 0
SMALL
USER_CHARGES


@<TRIPOS>ATOM
      1 C1         -8.5284    6.5586   48.0276 C.3     1  ZINC001369071670   -0.0800
      2 C2         -8.8529    5.6888   49.2148 C.2     1  ZINC001369071670    0.0000
      3 C3         -9.8543    4.7837   49.3043 C.2     1  ZINC001369071670   -0.2300
      4 C4         -9.7176    4.2501   50.6123 C.2     1  ZINC001369071670    0.2100
      5 O5        -10.4929    3.2967   51.1881 O.3     1  ZINC001369071670   -0.2600
      6 C6        -10.1633    2.9123   52.5244 C.3     1  ZINC001369071670    0.0400
      7 C7         -8.7870    2.2987   52.5457 C.2     1  ZINC001369071670    0.5200
      8 O8         -8.0981    2.3892   53.5398 O.2     1  ZINC001369071670   -0.5100
      9 N9         -8.3219    1.6493   51.4603 N.am    1  ZINC001369071670   -0.7200
     10 C10        -6.9846    1.0513   51.4816 C.3     1  ZINC001369071670    0.1500
     11 H11        -6.3664    1.5697   52.2145 H       1  ZINC001369071670    0.0900
     12 C12        -7.0931   -0.4271   51.8604 C.3     1  ZINC001369071670   -0.1700
     13 C13        -6.3472    1.1775   50.0964 C.3     1  ZINC001369071670   -0.1200
     14 C14        -5.9534    2.6183   49.7245 C.3     1  ZINC001369071670    0.0100
     15 N15        -4.7107    2.0318   49.1760 N.3     1  ZINC001369071670   -0.4800
     16 C16        -3.5416    2.8462   49.5336 C.3     1  ZINC001369071670    0.1000
     17 C17        -2.4065    2.5363   48.5919 C.2     1  ZINC001369071670    0.1900
     18 N18        -2.4998    1.9700   47.4136 N.2     1  ZINC001369071670   -0.3000
     19 N19        -1.3128    1.8783   46.9211 N.2     1  ZINC001369071670   -0.0700
     20 N20        -0.4647    2.3714   47.7547 N.2     1  ZINC001369071670   -0.0900
     21 N21        -1.1009    2.7925   48.7952 N.pl3   1  ZINC001369071670   -0.3000
     22 C22        -0.5119    3.4223   49.9794 C.3     1  ZINC001369071670    0.0800
     23 C23        -4.8400    0.8654   50.0771 C.3     1  ZINC001369071670    0.0200
     24 N24        -8.6958    4.8601   51.1508 N.2     1  ZINC001369071670   -0.4100
     25 O25        -8.2020    5.6566   50.3865 O.3     1  ZINC001369071670    0.1000
     26 H26        -7.6631    7.1800   48.2583 H       1  ZINC001369071670    0.0900
     27 H27        -8.3044    5.9291   47.1664 H       1  ZINC001369071670    0.1000
     28 H28        -9.3829    7.1957   47.7996 H       1  ZINC001369071670    0.1000
     29 H29       -10.5877    4.5268   48.5544 H       1  ZINC001369071670    0.1800
     30 H30       -10.1794    3.7908   53.1697 H       1  ZINC001369071670    0.1000
     31 H31       -10.8911    2.1846   52.8832 H       1  ZINC001369071670    0.1000
     32 H32        -8.8724    1.5779   50.6648 H       1  ZINC001369071670    0.4000
     33 H33        -7.5472   -0.5169   52.8472 H       1  ZINC001369071670    0.0600
     34 H34        -7.7113   -0.9455   51.1275 H       1  ZINC001369071670    0.0600
     35 H35        -6.0982   -0.8721   51.8762 H       1  ZINC001369071670    0.0700
     36 H36        -6.9122    0.6612   49.3203 H       1  ZINC001369071670    0.1100
     37 H37        -6.5972    3.0686   48.9690 H       1  ZINC001369071670    0.1000
     38 H38        -5.7903    3.2654   50.5865 H       1  ZINC001369071670    0.0800
     39 H39        -3.7981    3.9028   49.4580 H       1  ZINC001369071670    0.1000
     40 H40        -3.2385    2.6179   50.5554 H       1  ZINC001369071670    0.0900
     41 H41        -0.4713    4.5020   49.8346 H       1  ZINC001369071670    0.1000
     42 H42        -1.1227    3.1958   50.8533 H       1  ZINC001369071670    0.1000
     43 H43         0.4967    3.0381   50.1316 H       1  ZINC001369071670    0.1100
     44 H44        -4.3514    0.9997   51.0422 H       1  ZINC001369071670    0.0800
     45 H45        -4.5944   -0.0850   49.6033 H       1  ZINC001369071670    0.1000
@<TRIPOS>BOND
     1     1     2    1
     2     1    26    1
     3     1    27    1
     4     1    28    1
     5     2    25    1
     6     2     3    2
     7     3     4    1
     8     3    29    1
     9     4     5    1
    10     4    24    2
    11     5     6    1
    12     6     7    1
    13     6    30    1
    14     6    31    1
    15     7     8    2
    16     7     9   am
    17     9    10    1
    18     9    32    1
    19    10    11    1
    20    10    12    1
    21    10    13    1
    22    12    33    1
    23    12    34    1
    24    12    35    1
    25    13    23    1
    26    13    14    1
    27    13    36    1
    28    14    15    1
    29    14    37    1
    30    14    38    1
    31    15    16    1
    32    15    23    1
    33    16    17    1
    34    16    39    1
    35    16    40    1
    36    17    21    1
    37    17    18    2
    38    18    19    1
    39    19    20    2
    40    20    21    1
    41    21    22    1
    42    22    41    1
    43    22    42    1
    44    22    43    1
    45    23    44    1
    46    23    45    1
    47    24    25    1
@<TRIPOS>SUBSTRUCTURE
     1 ZINC001369071670        1 TEMP              0 ****  ****    0 ROOT


##########                                Name:    ZINC000745364361
##########                DOCK_Rotatable_Bonds:                   8
##########                         Heavy_Atoms:                  29
##########                    Molecular_Weight:             398.434
##########                DOCK_Rotatable_Bonds:                   8
##########                       Formal_Charge:          0.00999923
##########                     HBond_Acceptors:                   7
##########                        HBond_Donors:                   1
##########                         Heavy_Atoms:                  29
##########                          Grid_Score:          -33.288795
##########                     Grid_vdw_energy:          -31.872421
##########                      Grid_es_energy:           -1.416375
##########           Internal_energy_repulsive:           10.398211

@<TRIPOS>MOLECULE
ZINC000745364361
 52 54 1 0 0
SMALL
USER_CHARGES


@<TRIPOS>ATOM
      1 C1         -6.7115    0.4616   50.4718 C.3     1  ZINC000745364361   -0.1700
      2 C2         -6.0509    1.8263   50.2666 C.3     1  ZINC000745364361    0.0700
      3 H3         -5.9280    2.3192   51.2310 H       1  ZINC000745364361    0.1100
      4 O4         -6.8879    2.6451   49.4078 O.3     1  ZINC000745364361   -0.3200
      5 C5         -7.3157    3.8144   49.9093 C.2     1  ZINC000745364361    0.4700
      6 O6         -6.8204    4.8503   49.5332 O.2     1  ZINC000745364361   -0.4900
      7 C7         -8.4139    3.8350   50.9411 C.3     1  ZINC000745364361   -0.0400
      8 H8         -8.3260    2.9585   51.5829 H       1  ZINC000745364361    0.1200
      9 C9         -8.2928    5.1025   51.7894 C.3     1  ZINC000745364361   -0.1400
     10 C10        -9.7529    3.8192   50.2499 C.ar    1  ZINC000745364361   -0.0500
     11 C11        -9.8970    4.4112   49.0092 C.ar    1  ZINC000745364361   -0.1000
     12 C12       -11.1250    4.3975   48.3739 C.ar    1  ZINC000745364361   -0.0900
     13 C13       -12.2097    3.7918   48.9787 C.ar    1  ZINC000745364361   -0.1500
     14 C14       -12.0664    3.1979   50.2215 C.ar    1  ZINC000745364361    0.1000
     15 F15       -13.1262    2.6054   50.8138 F       1  ZINC000745364361   -0.1400
     16 C16       -10.8352    3.2077   50.8543 C.ar    1  ZINC000745364361   -0.1400
     17 C17        -4.7014    1.6393   49.6224 C.2     1  ZINC000745364361    0.5200
     18 O18        -4.3385    0.5321   49.2854 O.2     1  ZINC000745364361   -0.5000
     19 N19        -3.8978    2.7024   49.4208 N.am    1  ZINC000745364361   -0.6700
     20 C20        -2.6435    2.5285   48.8220 C.ar    1  ZINC000745364361    0.1200
     21 C21        -1.4864    2.7297   49.5632 C.ar    1  ZINC000745364361   -0.1100
     22 C22        -0.2503    2.5585   48.9731 C.ar    1  ZINC000745364361   -0.1400
     23 C23        -0.1638    2.1846   47.6385 C.ar    1  ZINC000745364361    0.1500
     24 N24         1.0906    2.0112   47.0396 N.am    1  ZINC000745364361   -0.5600
     25 C25         1.6175    0.7208   46.5800 C.3     1  ZINC000745364361    0.0900
     26 C26         2.7823    1.0673   45.6264 C.3     1  ZINC000745364361   -0.1300
     27 C27         3.2094    2.4605   46.1435 C.3     1  ZINC000745364361   -0.1500
     28 C28         1.9639    3.0061   46.8067 C.2     1  ZINC000745364361    0.5200
     29 O29         1.7828    4.1707   47.0933 O.2     1  ZINC000745364361   -0.5100
     30 C30        -1.3208    1.9820   46.8977 C.ar    1  ZINC000745364361   -0.1400
     31 C31        -2.5570    2.1495   47.4889 C.ar    1  ZINC000745364361   -0.0900
     32 H32        -7.6876    0.5968   50.9377 H       1  ZINC000745364361    0.0800
     33 H33        -6.8344   -0.0312   49.5074 H       1  ZINC000745364361    0.0800
     34 H34        -6.0832   -0.1529   51.1165 H       1  ZINC000745364361    0.0800
     35 H35        -8.3808    5.9791   51.1475 H       1  ZINC000745364361    0.0700
     36 H36        -9.0870    5.1175   52.5357 H       1  ZINC000745364361    0.0800
     37 H37        -7.3243    5.1140   52.2893 H       1  ZINC000745364361    0.0800
     38 H38        -9.0499    4.8853   48.5359 H       1  ZINC000745364361    0.1300
     39 H39       -11.2365    4.8608   47.4046 H       1  ZINC000745364361    0.1400
     40 H40       -13.1689    3.7818   48.4826 H       1  ZINC000745364361    0.1400
     41 H41       -10.7221    2.7446   51.8233 H       1  ZINC000745364361    0.1400
     42 H42        -4.1880    3.5878   49.6904 H       1  ZINC000745364361    0.4100
     43 H43        -1.5537    3.0205   50.6011 H       1  ZINC000745364361    0.1300
     44 H44         0.6496    2.7156   49.5492 H       1  ZINC000745364361    0.1600
     45 H45         1.9833    0.1396   47.4265 H       1  ZINC000745364361    0.0800
     46 H46         0.8454    0.1665   46.0465 H       1  ZINC000745364361    0.0900
     47 H47         3.5953    0.3482   45.7261 H       1  ZINC000745364361    0.1000
     48 H48         2.4376    1.1233   44.5938 H       1  ZINC000745364361    0.0900
     49 H49         4.0209    2.3673   46.8652 H       1  ZINC000745364361    0.1100
     50 H50         3.5076    3.1007   45.3133 H       1  ZINC000745364361    0.1100
     51 H51        -1.2536    1.6909   45.8599 H       1  ZINC000745364361    0.1300
     52 H52        -3.4568    1.9921   46.9128 H       1  ZINC000745364361    0.1400
@<TRIPOS>BOND
     1     1     2    1
     2     1    32    1
     3     1    33    1
     4     1    34    1
     5     2     3    1
     6     2     4    1
     7     2    17    1
     8     4     5    1
     9     5     6    2
    10     5     7    1
    11     7     8    1
    12     7     9    1
    13     7    10    1
    14     9    35    1
    15     9    36    1
    16     9    37    1
    17    10    16   ar
    18    10    11   ar
    19    11    12   ar
    20    11    38    1
    21    12    13   ar
    22    12    39    1
    23    13    14   ar
    24    13    40    1
    25    14    15    1
    26    14    16   ar
    27    16    41    1
    28    17    18    2
    29    17    19   am
    30    19    20    1
    31    19    42    1
    32    20    31   ar
    33    20    21   ar
    34    21    22   ar
    35    21    43    1
    36    22    23   ar
    37    22    44    1
    38    23    24    1
    39    23    30   ar
    40    24    28   am
    41    24    25    1
    42    25    26    1
    43    25    45    1
    44    25    46    1
    45    26    27    1
    46    26    47    1
    47    26    48    1
    48    27    28    1
    49    27    49    1
    50    27    50    1
    51    28    29    2
    52    30    31   ar
    53    30    51    1
    54    31    52    1
@<TRIPOS>SUBSTRUCTURE
     1 ZINC000745364361        1 TEMP              0 ****  ****    0 ROOT


##########                                Name:    ZINC000481838178
##########                DOCK_Rotatable_Bonds:                   6
##########                         Heavy_Atoms:                  29
##########                    Molecular_Weight:             408.524
##########                DOCK_Rotatable_Bonds:                   6
##########                       Formal_Charge:         -0.00999962
##########                     HBond_Acceptors:                   7
##########                        HBond_Donors:                   0
##########                         Heavy_Atoms:                  29
##########                          Grid_Score:          -33.280167
##########                     Grid_vdw_energy:          -33.076252
##########                      Grid_es_energy:           -0.203914
##########           Internal_energy_repulsive:            9.732976

@<TRIPOS>MOLECULE
ZINC000481838178
 53 57 1 0 0
SMALL
USER_CHARGES


@<TRIPOS>ATOM
      1 O1         -9.1726   -0.8554   51.8668 O.2     1  ZINC000481838178   -0.5200
      2 C2         -9.1341    0.3568   51.8584 C.2     1  ZINC000481838178    0.5500
      3 C3        -10.2970    1.1513   52.3946 C.3     1  ZINC000481838178   -0.1500
      4 S4        -11.1355    0.1979   53.6845 S.3     1  ZINC000481838178    0.1000
      5 C5        -10.0653    0.5188   55.0469 C.2     1  ZINC000481838178    0.1600
      6 N6         -9.0379    1.3380   55.0547 N.2     1  ZINC000481838178   -0.2800
      7 N7         -8.4755    1.3339   56.2100 N.2     1  ZINC000481838178   -0.2500
      8 C8         -9.1093    0.5100   57.0160 C.2     1  ZINC000481838178    0.2700
      9 C9         -8.7730    0.2274   58.4197 C.2     1  ZINC000481838178    0.0300
     10 C10        -9.6638    0.0437   59.4347 C.2     1  ZINC000481838178   -0.1300
     11 C11        -8.9082   -0.1991   60.5980 C.2     1  ZINC000481838178   -0.2100
     12 C12        -7.6087   -0.1530   60.2427 C.2     1  ZINC000481838178   -0.0100
     13 O13        -7.5305    0.0990   58.9255 O.3     1  ZINC000481838178   -0.1700
     14 N14       -10.1529   -0.0343   56.2963 N.pl3   1  ZINC000481838178   -0.4100
     15 C15       -11.0990   -0.9651   56.7470 C.ar    1  ZINC000481838178    0.1000
     16 C16       -12.4544   -0.7158   56.5795 C.ar    1  ZINC000481838178   -0.0800
     17 C17       -13.3844   -1.6349   57.0249 C.ar    1  ZINC000481838178   -0.1100
     18 C18       -12.9665   -2.8024   57.6369 C.ar    1  ZINC000481838178   -0.1000
     19 C19       -11.6171   -3.0534   57.8051 C.ar    1  ZINC000481838178   -0.1100
     20 C20       -10.6823   -2.1408   57.3567 C.ar    1  ZINC000481838178   -0.0900
     21 N21        -8.0490    0.9934   51.3747 N.am    1  ZINC000481838178   -0.6200
     22 C22        -7.8583    2.4672   51.3132 C.3     1  ZINC000481838178    0.1000
     23 C23        -6.3330    2.6227   51.3251 C.3     1  ZINC000481838178   -0.1100
     24 H24        -5.9290    2.4363   52.3202 H       1  ZINC000481838178    0.0900
     25 C25        -5.7864    3.9166   50.7520 C.3     1  ZINC000481838178   -0.1100
     26 C26        -4.2529    3.8015   50.7587 C.3     1  ZINC000481838178   -0.1200
     27 C27        -3.7757    2.5914   49.9623 C.3     1  ZINC000481838178   -0.1200
     28 C28        -4.4477    1.2947   50.4451 C.3     1  ZINC000481838178   -0.1000
     29 C29        -5.9430    1.4833   50.3360 C.3     1  ZINC000481838178   -0.1100
     30 H30        -6.2078    1.7852   49.3227 H       1  ZINC000481838178    0.0900
     31 C31        -6.8362    0.3441   50.8177 C.3     1  ZINC000481838178    0.1200
     32 H32        -9.9335    2.0893   52.8145 H       1  ZINC000481838178    0.1300
     33 H33       -10.9967    1.3623   51.5859 H       1  ZINC000481838178    0.1300
     34 H34       -10.7408    0.0782   59.3613 H       1  ZINC000481838178    0.1600
     35 H35        -9.2965   -0.3867   61.5880 H       1  ZINC000481838178    0.1600
     36 H36        -6.7693   -0.2990   60.9064 H       1  ZINC000481838178    0.2100
     37 H37       -12.7815    0.1960   56.1019 H       1  ZINC000481838178    0.1300
     38 H38       -14.4389   -1.4415   56.8951 H       1  ZINC000481838178    0.1400
     39 H39       -13.6955   -3.5194   57.9845 H       1  ZINC000481838178    0.1300
     40 H40       -11.2937   -3.9659   58.2839 H       1  ZINC000481838178    0.1400
     41 H41        -9.6285   -2.3374   57.4884 H       1  ZINC000481838178    0.1300
     42 H42        -8.2793    2.8718   50.3927 H       1  ZINC000481838178    0.0800
     43 H43        -8.3012    2.9494   52.1847 H       1  ZINC000481838178    0.0800
     44 H44        -6.1445    4.0514   49.7313 H       1  ZINC000481838178    0.0700
     45 H45        -6.0986    4.7581   51.3705 H       1  ZINC000481838178    0.0700
     46 H46        -3.8266    4.7050   50.3226 H       1  ZINC000481838178    0.0600
     47 H47        -3.9079    3.7082   51.7884 H       1  ZINC000481838178    0.0600
     48 H48        -4.0111    2.7433   48.9089 H       1  ZINC000481838178    0.0600
     49 H49        -2.6956    2.4954   50.0740 H       1  ZINC000481838178    0.0700
     50 H50        -4.1323    0.4583   49.8213 H       1  ZINC000481838178    0.0700
     51 H51        -4.1831    1.1042   51.4852 H       1  ZINC000481838178    0.0700
     52 H52        -6.3228   -0.2394   51.5819 H       1  ZINC000481838178    0.0700
     53 H53        -7.1161   -0.2948   49.9801 H       1  ZINC000481838178    0.0700
@<TRIPOS>BOND
     1     1     2    2
     2     2     3    1
     3     2    21   am
     4     3     4    1
     5     3    32    1
     6     3    33    1
     7     4     5    1
     8     5    14    1
     9     5     6    2
    10     6     7    1
    11     7     8    2
    12     8     9    1
    13     8    14    1
    14     9    13    1
    15     9    10    2
    16    10    11    1
    17    10    34    1
    18    11    12    2
    19    11    35    1
    20    12    13    1
    21    12    36    1
    22    14    15    1
    23    15    20   ar
    24    15    16   ar
    25    16    17   ar
    26    16    37    1
    27    17    18   ar
    28    17    38    1
    29    18    19   ar
    30    18    39    1
    31    19    20   ar
    32    19    40    1
    33    20    41    1
    34    21    31    1
    35    21    22    1
    36    22    23    1
    37    22    42    1
    38    22    43    1
    39    23    24    1
    40    23    29    1
    41    23    25    1
    42    25    26    1
    43    25    44    1
    44    25    45    1
    45    26    27    1
    46    26    46    1
    47    26    47    1
    48    27    28    1
    49    27    48    1
    50    27    49    1
    51    28    29    1
    52    28    50    1
    53    28    51    1
    54    29    30    1
    55    29    31    1
    56    31    52    1
    57    31    53    1
@<TRIPOS>SUBSTRUCTURE
     1 ZINC000481838178        1 TEMP              0 ****  ****    0 ROOT


##########                                Name:    ZINC001141221454
##########                DOCK_Rotatable_Bonds:                   7
##########                         Heavy_Atoms:                  27
##########                    Molecular_Weight:             369.439
##########                DOCK_Rotatable_Bonds:                   7
##########                       Formal_Charge:          0.00999935
##########                     HBond_Acceptors:                   6
##########                        HBond_Donors:                   1
##########                         Heavy_Atoms:                  27
##########                          Grid_Score:          -33.266335
##########                     Grid_vdw_energy:          -32.402992
##########                      Grid_es_energy:           -0.863343
##########           Internal_energy_repulsive:           15.062903

@<TRIPOS>MOLECULE
ZINC001141221454
 51 54 1 0 0
SMALL
USER_CHARGES


@<TRIPOS>ATOM
      1 C1          2.8793   -0.3425   49.7275 C.3     1  ZINC001141221454    0.0300
      2 O2          2.2301    0.8769   50.0932 O.3     1  ZINC001141221454   -0.3100
      3 C3          1.2539    1.3296   49.2622 C.ar    1  ZINC001141221454    0.0900
      4 C4          1.3020    1.0344   47.9087 C.ar    1  ZINC001141221454   -0.1800
      5 C5          0.3082    1.4952   47.0657 C.ar    1  ZINC001141221454   -0.0900
      6 C6         -0.7337    2.2504   47.5705 C.ar    1  ZINC001141221454   -0.1200
      7 C7         -0.7853    2.5477   48.9201 C.ar    1  ZINC001141221454   -0.0800
      8 C8         -1.9225    3.3716   49.4668 C.3     1  ZINC001141221454    0.0900
      9 N9         -2.8514    2.4998   50.1982 N.3     1  ZINC001141221454   -0.5100
     10 C10        -3.4563    3.2147   51.3519 C.3     1  ZINC001141221454    0.0300
     11 C11        -4.7366    2.3923   51.6513 C.3     1  ZINC001141221454   -0.0700
     12 C12        -5.2158    1.9876   50.2451 C.3     1  ZINC001141221454   -0.1000
     13 C13        -6.6068    2.3596   49.7485 C.3     1  ZINC001141221454   -0.1400
     14 C14        -6.2626    0.8984   50.0513 C.3     1  ZINC001141221454   -0.1800
     15 H15        -6.1371    0.2245   49.2039 H       1  ZINC001141221454    0.1300
     16 C16        -6.8653    0.2829   51.2878 C.2     1  ZINC001141221454    0.5500
     17 O17        -6.2077   -0.4731   51.9712 O.2     1  ZINC001141221454   -0.5300
     18 N18        -8.1351    0.5726   51.6343 N.am    1  ZINC001141221454   -0.7300
     19 C19        -8.7217   -0.0270   52.8353 C.3     1  ZINC001141221454    0.1700
     20 C20        -8.5910    0.9318   53.9907 C.ar    1  ZINC001141221454   -0.1600
     21 C21        -7.3832    1.5620   54.2467 C.ar    1  ZINC001141221454   -0.0600
     22 C22        -7.3096    2.4367   55.3202 C.ar    1  ZINC001141221454   -0.1700
     23 C23        -8.4346    2.6495   56.0937 C.ar    1  ZINC001141221454    0.1100
     24 N24        -9.5677    2.0321   55.8207 N.ar    1  ZINC001141221454   -0.4800
     25 C25        -9.6757    1.1982   54.8051 C.ar    1  ZINC001141221454    0.1200
     26 C26        -3.9843    2.0900   49.3368 C.3     1  ZINC001141221454    0.0700
     27 C27         0.2031    2.0844   49.7691 C.ar    1  ZINC001141221454    0.0900
     28 F28         0.1531    2.3746   51.0876 F       1  ZINC001141221454   -0.1300
     29 H29         3.6346   -0.5899   50.4734 H       1  ZINC001141221454    0.1000
     30 H30         2.1432   -1.1448   49.6759 H       1  ZINC001141221454    0.0600
     31 H31         3.3553   -0.2231   48.7542 H       1  ZINC001141221454    0.0600
     32 H32         2.1156    0.4448   47.5129 H       1  ZINC001141221454    0.1400
     33 H33         0.3461    1.2653   46.0112 H       1  ZINC001141221454    0.1300
     34 H34        -1.5088    2.6091   46.9095 H       1  ZINC001141221454    0.1300
     35 H35        -1.5290    4.1312   50.1423 H       1  ZINC001141221454    0.0600
     36 H36        -2.4493    3.8549   48.6441 H       1  ZINC001141221454    0.0900
     37 H37        -2.7821    3.2017   52.2083 H       1  ZINC001141221454    0.0800
     38 H38        -3.7121    4.2384   51.0784 H       1  ZINC001141221454    0.0500
     39 H39        -4.4993    1.5110   52.2472 H       1  ZINC001141221454    0.0900
     40 H40        -5.4835    3.0087   52.1516 H       1  ZINC001141221454    0.0700
     41 H41        -7.2686    2.8756   50.4441 H       1  ZINC001141221454    0.1000
     42 H42        -6.7077    2.6467   48.7018 H       1  ZINC001141221454    0.1100
     43 H43        -8.6606    1.1783   51.0885 H       1  ZINC001141221454    0.4000
     44 H44        -9.7757   -0.2401   52.6574 H       1  ZINC001141221454    0.0800
     45 H45        -8.1985   -0.9537   53.0714 H       1  ZINC001141221454    0.0800
     46 H46        -6.5198    1.3760   53.6249 H       1  ZINC001141221454    0.1400
     47 H47        -6.3845    2.9449   55.5490 H       1  ZINC001141221454    0.1400
     48 H48        -8.3855    3.3288   56.9318 H       1  ZINC001141221454    0.1600
     49 H49       -10.6201    0.7111   54.6126 H       1  ZINC001141221454    0.1600
     50 H50        -4.1534    2.8380   48.5622 H       1  ZINC001141221454    0.0500
     51 H51        -3.7753    1.1219   48.8815 H       1  ZINC001141221454    0.0900
@<TRIPOS>BOND
     1     1     2    1
     2     1    29    1
     3     1    30    1
     4     1    31    1
     5     2     3    1
     6     3    27   ar
     7     3     4   ar
     8     4     5   ar
     9     4    32    1
    10     5     6   ar
    11     5    33    1
    12     6     7   ar
    13     6    34    1
    14     7     8    1
    15     7    27   ar
    16     8     9    1
    17     8    35    1
    18     8    36    1
    19     9    26    1
    20     9    10    1
    21    10    11    1
    22    10    37    1
    23    10    38    1
    24    11    12    1
    25    11    39    1
    26    11    40    1
    27    12    14    1
    28    12    13    1
    29    12    26    1
    30    13    14    1
    31    13    41    1
    32    13    42    1
    33    14    15    1
    34    14    16    1
    35    16    17    2
    36    16    18   am
    37    18    19    1
    38    18    43    1
    39    19    20    1
    40    19    44    1
    41    19    45    1
    42    20    25   ar
    43    20    21   ar
    44    21    22   ar
    45    21    46    1
    46    22    23   ar
    47    22    47    1
    48    23    24   ar
    49    23    48    1
    50    24    25   ar
    51    25    49    1
    52    26    50    1
    53    26    51    1
    54    27    28    1
@<TRIPOS>SUBSTRUCTURE
     1 ZINC001141221454        1 TEMP              0 ****  ****    0 ROOT


##########                                Name:    ZINC001342629575
##########                DOCK_Rotatable_Bonds:                   9
##########                         Heavy_Atoms:                  29
##########                    Molecular_Weight:             396.533
##########                DOCK_Rotatable_Bonds:                   9
##########                       Formal_Charge:         -0.00999976
##########                     HBond_Acceptors:                   6
##########                        HBond_Donors:                   0
##########                         Heavy_Atoms:                  29
##########                          Grid_Score:          -33.209301
##########                     Grid_vdw_energy:          -31.921814
##########                      Grid_es_energy:           -1.287487
##########           Internal_energy_repulsive:           21.997765

@<TRIPOS>MOLECULE
ZINC001342629575
 61 64 1 0 0
SMALL
USER_CHARGES


@<TRIPOS>ATOM
      1 C1          2.6880    5.3215   49.0153 C.2     1  ZINC001342629575   -0.1800
      2 C2          2.0254    4.6183   49.8999 C.2     1  ZINC001342629575   -0.1600
      3 C3          0.5423    4.4065   49.7368 C.3     1  ZINC001342629575   -0.0800
      4 C4          0.1476    3.0644   50.3563 C.3     1  ZINC001342629575    0.0500
      5 H5          0.2762    3.1115   51.4376 H       1  ZINC001342629575    0.0900
      6 C6         -1.2942    2.7671   50.0343 C.2     1  ZINC001342629575    0.2000
      7 N7         -1.7844    2.5068   48.8555 N.2     1  ZINC001342629575   -0.2700
      8 N8         -3.0503    2.3006   48.9403 N.2     1  ZINC001342629575   -0.3000
      9 C9         -3.4387    2.4194   50.1880 C.2     1  ZINC001342629575    0.3400
     10 N10        -4.7303    2.2675   50.6667 N.3     1  ZINC001342629575   -0.4300
     11 C11        -5.0977    0.8310   50.7605 C.3     1  ZINC001342629575    0.0400
     12 C12        -6.6415    0.8241   50.7671 C.3     1  ZINC001342629575   -0.1200
     13 C13        -7.0513    2.1433   50.0805 C.3     1  ZINC001342629575   -0.1200
     14 C14        -5.7206    2.8363   49.7166 C.3     1  ZINC001342629575    0.0700
     15 H15        -5.4392    2.6036   48.6896 H       1  ZINC001342629575    0.0900
     16 C16        -5.8378    4.3499   49.9068 C.3     1  ZINC001342629575    0.1000
     17 H17        -4.9776    4.8466   49.4579 H       1  ZINC001342629575    0.0700
     18 C18        -5.9093    4.6846   51.4121 C.3     1  ZINC001342629575   -0.1400
     19 C19        -6.9555    5.8319   51.4454 C.3     1  ZINC001342629575   -0.1600
     20 C20        -7.9034    5.3989   50.2986 C.3     1  ZINC001342629575    0.0500
     21 O21        -7.0447    4.8241   49.2982 O.3     1  ZINC001342629575   -0.3700
     22 N22        -2.3296    2.7149   50.9259 N.pl3   1  ZINC001342629575   -0.4600
     23 C23        -2.2635    2.9395   52.3721 C.3     1  ZINC001342629575    0.1100
     24 C24        -1.9939    4.4204   52.6464 C.3     1  ZINC001342629575    0.0500
     25 O25        -2.2774    4.7103   54.0167 O.3     1  ZINC001342629575   -0.3800
     26 C26        -1.4759    3.9758   54.9441 C.3     1  ZINC001342629575    0.0300
     27 C27         1.0230    1.9745   49.7934 C.ar    1  ZINC001342629575   -0.0900
     28 C28         1.6691    1.0979   50.6450 C.ar    1  ZINC001342629575   -0.0900
     29 C29         2.4720    0.0981   50.1287 C.ar    1  ZINC001342629575   -0.1200
     30 C30         2.6285   -0.0255   48.7608 C.ar    1  ZINC001342629575   -0.1200
     31 C31         1.9817    0.8505   47.9092 C.ar    1  ZINC001342629575   -0.1200
     32 C32         1.1753    1.8476   48.4254 C.ar    1  ZINC001342629575   -0.1100
     33 H33         3.7508    5.4733   49.1322 H       1  ZINC001342629575    0.1000
     34 H34         2.1721    5.7457   48.1665 H       1  ZINC001342629575    0.1000
     35 H35         2.5421    4.1903   50.7463 H       1  ZINC001342629575    0.1000
     36 H36         0.0032    5.2105   50.2378 H       1  ZINC001342629575    0.0900
     37 H37         0.2900    4.4055   48.6764 H       1  ZINC001342629575    0.0800
     38 H38        -4.7189    0.2846   49.8968 H       1  ZINC001342629575    0.0600
     39 H39        -4.7117    0.3994   51.6838 H       1  ZINC001342629575    0.0800
     40 H40        -7.0188   -0.0291   50.2035 H       1  ZINC001342629575    0.0800
     41 H41        -7.0156    0.7981   51.7906 H       1  ZINC001342629575    0.0800
     42 H42        -7.6296    1.9375   49.1797 H       1  ZINC001342629575    0.0800
     43 H43        -7.6265    2.7646   50.7668 H       1  ZINC001342629575    0.0800
     44 H44        -6.2579    3.8251   51.9845 H       1  ZINC001342629575    0.0900
     45 H45        -4.9428    5.0303   51.7790 H       1  ZINC001342629575    0.0800
     46 H46        -7.4804    5.8575   52.4003 H       1  ZINC001342629575    0.0800
     47 H47        -6.4908    6.7939   51.2288 H       1  ZINC001342629575    0.0800
     48 H48        -8.6169    4.6570   50.6574 H       1  ZINC001342629575    0.0600
     49 H49        -8.4277    6.2645   49.8939 H       1  ZINC001342629575    0.0900
     50 H50        -3.2109    2.6521   52.8282 H       1  ZINC001342629575    0.1000
     51 H51        -1.4590    2.3390   52.7967 H       1  ZINC001342629575    0.1100
     52 H52        -0.9479    4.6441   52.4366 H       1  ZINC001342629575    0.0600
     53 H53        -2.6315    5.0304   52.0065 H       1  ZINC001342629575    0.0600
     54 H54        -1.7518    4.2525   55.9616 H       1  ZINC001342629575    0.0900
     55 H55        -1.6405    2.9079   54.8005 H       1  ZINC001342629575    0.0400
     56 H56        -0.4237    4.2068   54.7775 H       1  ZINC001342629575    0.0400
     57 H57         1.5468    1.1945   51.7136 H       1  ZINC001342629575    0.1300
     58 H58         2.9773   -0.5863   50.7940 H       1  ZINC001342629575    0.1200
     59 H59         3.2563   -0.8061   48.3574 H       1  ZINC001342629575    0.1200
     60 H60         2.1042    0.7541   46.8405 H       1  ZINC001342629575    0.1200
     61 H61         0.6700    2.5319   47.7600 H       1  ZINC001342629575    0.1200
@<TRIPOS>BOND
     1     1     2    2
     2     1    33    1
     3     1    34    1
     4     2     3    1
     5     2    35    1
     6     3     4    1
     7     3    36    1
     8     3    37    1
     9     4     5    1
    10     4     6    1
    11     4    27    1
    12     6    22    1
    13     6     7    2
    14     7     8    1
    15     8     9    2
    16     9    10    1
    17     9    22    1
    18    10    14    1
    19    10    11    1
    20    11    12    1
    21    11    38    1
    22    11    39    1
    23    12    13    1
    24    12    40    1
    25    12    41    1
    26    13    14    1
    27    13    42    1
    28    13    43    1
    29    14    15    1
    30    14    16    1
    31    16    17    1
    32    16    21    1
    33    16    18    1
    34    18    19    1
    35    18    44    1
    36    18    45    1
    37    19    20    1
    38    19    46    1
    39    19    47    1
    40    20    21    1
    41    20    48    1
    42    20    49    1
    43    22    23    1
    44    23    24    1
    45    23    50    1
    46    23    51    1
    47    24    25    1
    48    24    52    1
    49    24    53    1
    50    25    26    1
    51    26    54    1
    52    26    55    1
    53    26    56    1
    54    27    32   ar
    55    27    28   ar
    56    28    29   ar
    57    28    57    1
    58    29    30   ar
    59    29    58    1
    60    30    31   ar
    61    30    59    1
    62    31    32   ar
    63    31    60    1
    64    32    61    1
@<TRIPOS>SUBSTRUCTURE
     1 ZINC001342629575        1 TEMP              0 ****  ****    0 ROOT


##########                                Name:    ZINC001181473921
##########                DOCK_Rotatable_Bonds:                   9
##########                         Heavy_Atoms:                  24
##########                    Molecular_Weight:             357.431
##########                DOCK_Rotatable_Bonds:                   9
##########                       Formal_Charge:        -5.96046e-08
##########                     HBond_Acceptors:                   9
##########                        HBond_Donors:                   4
##########                         Heavy_Atoms:                  24
##########                          Grid_Score:          -33.178566
##########                     Grid_vdw_energy:          -31.510193
##########                      Grid_es_energy:           -1.668372
##########           Internal_energy_repulsive:           13.241591

@<TRIPOS>MOLECULE
ZINC001181473921
 47 48 1 0 0
SMALL
USER_CHARGES


@<TRIPOS>ATOM
      1 C1         -6.0569    4.2243   51.2739 C.3     1  ZINC001181473921   -0.1300
      2 C2         -5.0497    3.3894   50.5259 C.2     1  ZINC001181473921    0.1900
      3 C3         -3.8531    3.9230   50.1994 C.2     1  ZINC001181473921   -0.2400
      4 C4         -2.9071    3.1469   49.5005 C.2     1  ZINC001181473921    0.2500
      5 O5         -1.7023    3.6678   49.1662 O.3     1  ZINC001181473921   -0.4600
      6 C6         -3.2277    1.8454   49.1616 C.2     1  ZINC001181473921   -0.3700
      7 C7         -4.4808    1.3365   49.5220 C.2     1  ZINC001181473921    0.5300
      8 O8         -4.7790    0.1887   49.2304 O.2     1  ZINC001181473921   -0.5500
      9 N9         -5.3556    2.1077   50.1940 N.am    1  ZINC001181473921   -0.5000
     10 C10        -6.6629    1.5599   50.5641 C.3     1  ZINC001181473921    0.1000
     11 C11        -6.5110    0.6665   51.7969 C.3     1  ZINC001181473921   -0.1600
     12 C12        -7.8474    0.0660   52.1499 C.2     1  ZINC001181473921    0.5200
     13 O13        -8.1664   -1.0126   51.6961 O.2     1  ZINC001181473921   -0.5300
     14 N14        -8.6880    0.7274   52.9698 N.am    1  ZINC001181473921   -0.7200
     15 C15        -9.9879    0.1443   53.3116 C.3     1  ZINC001181473921    0.1400
     16 H16       -10.3788   -0.4394   52.4781 H       1  ZINC001181473921    0.1000
     17 C17       -10.9920    1.2478   53.7277 C.3     1  ZINC001181473921   -0.1300
     18 C18       -12.0239    0.5089   54.6046 C.3     1  ZINC001181473921   -0.1500
     19 C19       -11.3180   -0.7432   55.1538 C.3     1  ZINC001181473921   -0.0800
     20 H20       -11.8366   -1.6414   54.8187 H       1  ZINC001181473921    0.0900
     21 C21       -11.2841   -0.6976   56.6828 C.3     1  ZINC001181473921   -0.6200
     22 S22       -10.9888   -2.3657   57.3311 S.o2    1  ZINC001181473921    2.6100
     23 N23       -12.3148   -3.2353   56.8540 N.am    1  ZINC001181473921   -1.2500
     24 O24        -9.9032   -2.9802   56.6506 O.2     1  ZINC001181473921   -0.9600
     25 O25       -11.0597   -2.3688   58.7503 O.2     1  ZINC001181473921   -0.9600
     26 C26        -9.8806   -0.7257   54.5886 C.3     1  ZINC001181473921   -0.1200
     27 H27        -6.3529    3.7059   52.1859 H       1  ZINC001181473921    0.0900
     28 H28        -5.6127    5.1861   51.5304 H       1  ZINC001181473921    0.1000
     29 H29        -6.9334    4.3849   50.6463 H       1  ZINC001181473921    0.0900
     30 H30        -3.6218    4.9419   50.4729 H       1  ZINC001181473921    0.1500
     31 H31        -1.7532    4.4189   48.5593 H       1  ZINC001181473921    0.4100
     32 H32        -2.5205    1.2296   48.6257 H       1  ZINC001181473921    0.1500
     33 H33        -7.3485    2.3766   50.7896 H       1  ZINC001181473921    0.1000
     34 H34        -7.0582    0.9719   49.7358 H       1  ZINC001181473921    0.1100
     35 H35        -5.7996   -0.1310   51.5823 H       1  ZINC001181473921    0.1100
     36 H36        -6.1476    1.2618   52.6345 H       1  ZINC001181473921    0.1000
     37 H37        -8.4324    1.5894   53.3337 H       1  ZINC001181473921    0.4000
     38 H38       -10.4885    2.0244   54.3035 H       1  ZINC001181473921    0.0700
     39 H39       -11.4747    1.6755   52.8490 H       1  ZINC001181473921    0.0800
     40 H40       -12.3417    1.1495   55.4273 H       1  ZINC001181473921    0.0900
     41 H41       -12.8853    0.2184   54.0031 H       1  ZINC001181473921    0.0800
     42 H42       -10.4832   -0.0339   57.0088 H       1  ZINC001181473921    0.1400
     43 H43       -12.2385   -0.3262   57.0563 H       1  ZINC001181473921    0.1400
     44 H44       -12.5210   -3.3268   55.9106 H       1  ZINC001181473921    0.4100
     45 H45       -12.8853   -3.6533   57.5179 H       1  ZINC001181473921    0.4200
     46 H46        -9.5555   -1.7362   54.3414 H       1  ZINC001181473921    0.0800
     47 H47        -9.1957   -0.2673   55.3020 H       1  ZINC001181473921    0.0800
@<TRIPOS>BOND
     1     1     2    1
     2     1    27    1
     3     1    28    1
     4     1    29    1
     5     2     9    1
     6     2     3    2
     7     3     4    1
     8     3    30    1
     9     4     5    1
    10     4     6    2
    11     5    31    1
    12     6     7    1
    13     6    32    1
    14     7     8    2
    15     7     9   am
    16     9    10    1
    17    10    11    1
    18    10    33    1
    19    10    34    1
    20    11    12    1
    21    11    35    1
    22    11    36    1
    23    12    13    2
    24    12    14   am
    25    14    15    1
    26    14    37    1
    27    15    16    1
    28    15    26    1
    29    15    17    1
    30    17    18    1
    31    17    38    1
    32    17    39    1
    33    18    19    1
    34    18    40    1
    35    18    41    1
    36    19    20    1
    37    19    21    1
    38    19    26    1
    39    21    22    1
    40    21    42    1
    41    21    43    1
    42    22    23   am
    43    22    24    2
    44    22    25    2
    45    23    44    1
    46    23    45    1
    47    26    46    1
    48    26    47    1
@<TRIPOS>SUBSTRUCTURE
     1 ZINC001181473921        1 TEMP              0 ****  ****    0 ROOT


##########                                Name:    ZINC001070580102
##########                DOCK_Rotatable_Bonds:                   8
##########                         Heavy_Atoms:                  25
##########                    Molecular_Weight:              349.39
##########                DOCK_Rotatable_Bonds:                   8
##########                       Formal_Charge:          -0.0100003
##########                     HBond_Acceptors:                   9
##########                        HBond_Donors:                   3
##########                         Heavy_Atoms:                  25
##########                          Grid_Score:          -33.161118
##########                     Grid_vdw_energy:          -31.972843
##########                      Grid_es_energy:           -1.188274
##########           Internal_energy_repulsive:           15.281393

@<TRIPOS>MOLECULE
ZINC001070580102
 48 50 1 0 0
SMALL
USER_CHARGES


@<TRIPOS>ATOM
      1 C1        -11.3213    0.5935   56.6850 C.3     1  ZINC001070580102   -0.0800
      2 C2        -10.1537    0.6651   55.7350 C.2     1  ZINC001070580102   -0.0100
      3 C3        -10.0621    0.0152   54.5647 C.2     1  ZINC001070580102   -0.1900
      4 C4         -8.7593    0.3897   53.9954 C.2     1  ZINC001070580102   -0.2500
      5 C5         -8.1842   -0.0597   52.7149 C.2     1  ZINC001070580102    0.6000
      6 O6         -8.7220   -0.9511   52.0865 O.2     1  ZINC001070580102   -0.5300
      7 N7         -7.0625    0.5175   52.2405 N.am    1  ZINC001070580102   -0.7200
      8 C8         -6.4900    0.0696   50.9687 C.3     1  ZINC001070580102    0.2000
      9 C9         -5.7988    1.2263   50.2938 C.2     1  ZINC001070580102    0.2600
     10 N10        -4.5074    1.3627   50.1345 N.2     1  ZINC001070580102   -0.5100
     11 C11        -4.2487    2.5036   49.4966 C.2     1  ZINC001070580102    0.2300
     12 C12        -2.8777    3.0102   49.1298 C.3     1  ZINC001070580102    0.1400
     13 H13        -2.9519    4.0394   48.7786 H       1  ZINC001070580102    0.0800
     14 C14        -2.2881    2.1334   48.0219 C.3     1  ZINC001070580102    0.0800
     15 O15        -0.9586    2.5721   47.7304 O.3     1  ZINC001070580102   -0.3800
     16 C16        -0.0785    2.5309   48.8569 C.3     1  ZINC001070580102    0.0600
     17 C17        -0.6457    3.4118   49.9732 C.3     1  ZINC001070580102    0.0200
     18 N18        -2.0024    2.9562   50.3097 N.3     1  ZINC001070580102   -0.5200
     19 C19        -2.5617    3.7414   51.4181 C.3     1  ZINC001070580102    0.0600
     20 C20        -1.9965    3.2271   52.7436 C.3     1  ZINC001070580102    0.0800
     21 O21        -1.2126    4.2524   53.3570 O.3     1  ZINC001070580102   -0.5700
     22 N22        -5.3770    3.1116   49.2399 N.2     1  ZINC001070580102   -0.2700
     23 N23        -6.4020    2.2951   49.7451 N.pl3   1  ZINC001070580102   -0.4700
     24 C24        -8.1944    1.2407   54.8996 C.2     1  ZINC001070580102    0.0900
     25 C25        -6.8465    1.9011   54.7659 C.3     1  ZINC001070580102   -0.0900
     26 O26        -9.0420    1.3934   55.9217 O.3     1  ZINC001070580102   -0.1700
     27 H27       -11.1246    1.2258   57.5508 H       1  ZINC001070580102    0.0800
     28 H28       -12.2228    0.9400   56.1796 H       1  ZINC001070580102    0.0900
     29 H29       -11.4612   -0.4368   57.0118 H       1  ZINC001070580102    0.0900
     30 H30       -10.7954   -0.6479   54.1298 H       1  ZINC001070580102    0.1500
     31 H31        -6.6342    1.2293   52.7412 H       1  ZINC001070580102    0.4000
     32 H32        -5.7686   -0.7260   51.1550 H       1  ZINC001070580102    0.1000
     33 H33        -7.2852   -0.3047   50.3240 H       1  ZINC001070580102    0.1100
     34 H34        -2.2643    1.0952   48.3534 H       1  ZINC001070580102    0.0700
     35 H35        -2.9034    2.2160   47.1260 H       1  ZINC001070580102    0.1000
     36 H36         0.0095    1.5043   49.2126 H       1  ZINC001070580102    0.0600
     37 H37         0.9042    2.9011   48.5649 H       1  ZINC001070580102    0.1000
     38 H38        -0.0081    3.3384   50.8542 H       1  ZINC001070580102    0.1200
     39 H39        -0.6836    4.4476   49.6357 H       1  ZINC001070580102    0.0400
     40 H40        -2.2940    4.7904   51.2916 H       1  ZINC001070580102    0.0500
     41 H41        -3.6471    3.6414   51.4227 H       1  ZINC001070580102    0.0800
     42 H42        -2.8171    2.9518   53.4060 H       1  ZINC001070580102    0.0500
     43 H43        -1.3712    2.3539   52.5575 H       1  ZINC001070580102    0.0600
     44 H44        -0.9818    4.0727   54.2787 H       1  ZINC001070580102    0.3800
     45 H45        -7.3554    2.4706   49.7106 H       1  ZINC001070580102    0.4400
     46 H46        -6.9597    2.8581   54.2566 H       1  ZINC001070580102    0.0900
     47 H47        -6.4222    2.0646   55.7565 H       1  ZINC001070580102    0.0800
     48 H48        -6.1826    1.2582   54.1879 H       1  ZINC001070580102    0.1100
@<TRIPOS>BOND
     1     1     2    1
     2     1    27    1
     3     1    28    1
     4     1    29    1
     5     2    26    1
     6     2     3    2
     7     3     4    1
     8     3    30    1
     9     4     5    1
    10     4    24    2
    11     5     6    2
    12     5     7   am
    13     7     8    1
    14     7    31    1
    15     8     9    1
    16     8    32    1
    17     8    33    1
    18     9    23    1
    19     9    10    2
    20    10    11    1
    21    11    12    1
    22    11    22    2
    23    12    13    1
    24    12    18    1
    25    12    14    1
    26    14    15    1
    27    14    34    1
    28    14    35    1
    29    15    16    1
    30    16    17    1
    31    16    36    1
    32    16    37    1
    33    17    18    1
    34    17    38    1
    35    17    39    1
    36    18    19    1
    37    19    20    1
    38    19    40    1
    39    19    41    1
    40    20    21    1
    41    20    42    1
    42    20    43    1
    43    21    44    1
    44    22    23    1
    45    23    45    1
    46    24    25    1
    47    24    26    1
    48    25    46    1
    49    25    47    1
    50    25    48    1
@<TRIPOS>SUBSTRUCTURE
     1 ZINC001070580102        1 TEMP              0 ****  ****    0 ROOT


##########                                Name:    ZINC000466160459
##########                DOCK_Rotatable_Bonds:                   9
##########                         Heavy_Atoms:                  30
##########                    Molecular_Weight:             420.512
##########                DOCK_Rotatable_Bonds:                   9
##########                       Formal_Charge:          -0.0300007
##########                     HBond_Acceptors:                  10
##########                        HBond_Donors:                   2
##########                         Heavy_Atoms:                  30
##########                          Grid_Score:          -33.153694
##########                     Grid_vdw_energy:          -32.627647
##########                      Grid_es_energy:           -0.526047
##########           Internal_energy_repulsive:           97.093834

@<TRIPOS>MOLECULE
ZINC000466160459
 62 64 1 0 0
SMALL
USER_CHARGES


@<TRIPOS>ATOM
      1 C1         -8.6016   -0.8740   59.6380 C.3     1  ZINC000466160459    0.0300
      2 O2         -8.2495   -0.2945   58.3801 O.3     1  ZINC000466160459   -0.3900
      3 C3         -9.3706    0.1199   57.5969 C.3     1  ZINC000466160459    0.0500
      4 C4         -8.8766    0.8272   56.3333 C.3     1  ZINC000466160459    0.1200
      5 N5         -8.0317    1.9636   56.7085 N.am    1  ZINC000466160459   -0.7300
      6 C6         -7.0463    2.3718   55.8847 C.2     1  ZINC000466160459    0.5200
      7 O7         -6.8599    1.7990   54.8319 O.2     1  ZINC000466160459   -0.5200
      8 C8         -6.1760    3.5397   56.2714 C.3     1  ZINC000466160459   -0.1300
      9 H9         -5.3201    3.1818   56.8438 H       1  ZINC000466160459    0.1100
     10 C10        -6.9858    4.5205   57.1226 C.3     1  ZINC000466160459   -0.1000
     11 C11        -8.2061    4.9977   56.3320 C.3     1  ZINC000466160459   -0.1500
     12 C12        -7.7378    5.7265   55.0684 C.3     1  ZINC000466160459    0.1600
     13 H13        -7.2041    6.6350   55.3473 H       1  ZINC000466160459    0.0700
     14 C14        -8.9489    6.0874   54.2060 C.3     1  ZINC000466160459   -0.1400
     15 N15        -6.8405    4.8392   54.3159 N.am    1  ZINC000466160459   -0.6200
     16 C16        -7.0730    4.5696   53.0160 C.2     1  ZINC000466160459    0.7100
     17 O17        -8.0327    5.0623   52.4551 O.2     1  ZINC000466160459   -0.5500
     18 N18        -6.2416    3.7539   52.3378 N.am    1  ZINC000466160459   -0.7300
     19 C19        -6.4943    3.4608   50.9249 C.3     1  ZINC000466160459    0.1600
     20 H20        -7.0813    4.2681   50.4870 H       1  ZINC000466160459    0.1300
     21 C21        -7.2707    2.1468   50.8091 C.3     1  ZINC000466160459   -0.1400
     22 C22        -6.3277    0.9930   51.1707 C.3     1  ZINC000466160459   -0.1400
     23 C23        -5.2510    0.8836   50.0903 C.3     1  ZINC000466160459    0.1100
     24 N24        -4.6349    2.1826   49.8506 N.am    1  ZINC000466160459   -0.5200
     25 C25        -3.3858    2.2100   49.2156 C.2     1  ZINC000466160459    0.2800
     26 N26        -3.1308    1.7925   47.9980 N.2     1  ZINC000466160459   -0.2600
     27 N27        -1.7680    1.9931   47.7439 N.pl3   1  ZINC000466160459   -0.3800
     28 C28        -1.0669    1.6640   46.5003 C.3     1  ZINC000466160459    0.1000
     29 C29        -1.2139    2.5430   48.8448 C.2     1  ZINC000466160459    0.0700
     30 C30        -2.1898    2.6947   49.7687 C.2     1  ZINC000466160459   -0.2900
     31 C31        -5.1854    3.3447   50.1978 C.2     1  ZINC000466160459    0.4900
     32 O32        -4.5984    4.3664   49.9104 O.2     1  ZINC000466160459   -0.4700
     33 C33        -5.6841    4.2514   55.0072 C.3     1  ZINC000466160459    0.1200
     34 H34        -7.6958   -1.1620   60.1716 H       1  ZINC000466160459    0.0900
     35 H35        -9.1565   -0.1466   60.2305 H       1  ZINC000466160459    0.0400
     36 H36        -9.2209   -1.7552   59.4714 H       1  ZINC000466160459    0.0400
     37 H37        -9.9612   -0.7525   57.3176 H       1  ZINC000466160459    0.0600
     38 H38        -9.9872    0.8048   58.1791 H       1  ZINC000466160459    0.0700
     39 H39        -8.2983    0.1287   55.7285 H       1  ZINC000466160459    0.0800
     40 H40        -9.7313    1.1840   55.7588 H       1  ZINC000466160459    0.0800
     41 H41        -8.1815    2.4225   57.5499 H       1  ZINC000466160459    0.4000
     42 H42        -7.3158    4.0230   58.0346 H       1  ZINC000466160459    0.0700
     43 H43        -6.3630    5.3767   57.3813 H       1  ZINC000466160459    0.0700
     44 H44        -8.8165    4.1392   56.0517 H       1  ZINC000466160459    0.1000
     45 H45        -8.7949    5.6779   56.9473 H       1  ZINC000466160459    0.0700
     46 H46        -9.6640    6.6538   54.8026 H       1  ZINC000466160459    0.0400
     47 H47        -8.6244    6.6909   53.3583 H       1  ZINC000466160459    0.0800
     48 H48        -9.4212    5.1747   53.8426 H       1  ZINC000466160459    0.0600
     49 H49        -5.4759    3.3610   52.7853 H       1  ZINC000466160459    0.3900
     50 H50        -8.1166    2.1586   51.4965 H       1  ZINC000466160459    0.0900
     51 H51        -7.6293    2.0212   49.7875 H       1  ZINC000466160459    0.0900
     52 H52        -5.8594    1.1919   52.1347 H       1  ZINC000466160459    0.0700
     53 H53        -6.8916    0.0616   51.2206 H       1  ZINC000466160459    0.1000
     54 H54        -4.4870    0.1766   50.4133 H       1  ZINC000466160459    0.0900
     55 H55        -5.7032    0.5235   49.1662 H       1  ZINC000466160459    0.0800
     56 H56        -1.0995    2.5207   45.8271 H       1  ZINC000466160459    0.0700
     57 H57        -0.0290    1.4162   46.7230 H       1  ZINC000466160459    0.0900
     58 H58        -1.5504    0.8103   46.0255 H       1  ZINC000466160459    0.0900
     59 H59        -0.1762    2.8173   48.9651 H       1  ZINC000466160459    0.1800
     60 H60        -2.0690    3.1081   50.7592 H       1  ZINC000466160459    0.1500
     61 H61        -4.9827    5.0397   55.2810 H       1  ZINC000466160459    0.0900
     62 H62        -5.1922    3.5335   54.3509 H       1  ZINC000466160459    0.0700
@<TRIPOS>BOND
     1     1     2    1
     2     1    34    1
     3     1    35    1
     4     1    36    1
     5     2     3    1
     6     3     4    1
     7     3    37    1
     8     3    38    1
     9     4     5    1
    10     4    39    1
    11     4    40    1
    12     5     6   am
    13     5    41    1
    14     6     7    2
    15     6     8    1
    16     8     9    1
    17     8    33    1
    18     8    10    1
    19    10    11    1
    20    10    42    1
    21    10    43    1
    22    11    12    1
    23    11    44    1
    24    11    45    1
    25    12    13    1
    26    12    14    1
    27    12    15    1
    28    14    46    1
    29    14    47    1
    30    14    48    1
    31    15    16   am
    32    15    33    1
    33    16    17    2
    34    16    18   am
    35    18    19    1
    36    18    49    1
    37    19    20    1
    38    19    31    1
    39    19    21    1
    40    21    22    1
    41    21    50    1
    42    21    51    1
    43    22    23    1
    44    22    52    1
    45    22    53    1
    46    23    24    1
    47    23    54    1
    48    23    55    1
    49    24    25    1
    50    24    31   am
    51    25    30    1
    52    25    26    2
    53    26    27    1
    54    27    28    1
    55    27    29    1
    56    28    56    1
    57    28    57    1
    58    28    58    1
    59    29    30    2
    60    29    59    1
    61    30    60    1
    62    31    32    2
    63    33    61    1
    64    33    62    1
@<TRIPOS>SUBSTRUCTURE
     1 ZINC000466160459        1 TEMP              0 ****  ****    0 ROOT


##########                                Name:    ZINC000821442454
##########                DOCK_Rotatable_Bonds:                   6
##########                         Heavy_Atoms:                  26
##########                    Molecular_Weight:             398.873
##########                DOCK_Rotatable_Bonds:                   6
##########                       Formal_Charge:          -0.0399996
##########                     HBond_Acceptors:                  11
##########                        HBond_Donors:                   2
##########                         Heavy_Atoms:                  26
##########                          Grid_Score:          -33.145111
##########                     Grid_vdw_energy:          -32.708889
##########                      Grid_es_energy:           -0.436223
##########           Internal_energy_repulsive:           10.018565

@<TRIPOS>MOLECULE
ZINC000821442454
 45 47 1 0 0
SMALL
USER_CHARGES


@<TRIPOS>ATOM
      1 C1         -9.7288   -1.3347   58.9974 C.3     1  ZINC000821442454   -0.1500
      2 C2        -11.0692   -1.9925   58.6637 C.3     1  ZINC000821442454   -0.6300
      3 S3        -11.1802   -2.2648   56.8737 S.o2    1  ZINC000821442454    2.6000
      4 O4        -10.0237   -2.9405   56.3995 O.2     1  ZINC000821442454   -0.9500
      5 O5        -12.4836   -2.7037   56.5160 O.2     1  ZINC000821442454   -0.9500
      6 N6        -11.0654   -0.7488   56.2172 N.am    1  ZINC000821442454   -1.0000
      7 C7        -12.0509    0.2884   56.5517 C.3     1  ZINC000821442454    0.1100
      8 C8        -12.6325    0.8533   55.2519 C.3     1  ZINC000821442454   -0.1300
      9 C9        -11.4909    1.3369   54.3548 C.3     1  ZINC000821442454   -0.1100
     10 C10       -10.5807    0.1576   54.0042 C.3     1  ZINC000821442454   -0.1200
     11 H11       -11.1629   -0.6142   53.5007 H       1  ZINC000821442454    0.1100
     12 C12        -9.4757    0.6283   53.0939 C.2     1  ZINC000821442454    0.5300
     13 O13        -9.6973    1.4837   52.2632 O.2     1  ZINC000821442454   -0.5100
     14 N14        -8.2412    0.0985   53.2029 N.am    1  ZINC000821442454   -0.6700
     15 C15        -7.2156    0.5352   52.3581 C.ar    1  ZINC000821442454    0.1800
     16 C16        -7.0546   -0.0437   51.1057 C.ar    1  ZINC000821442454   -0.1200
     17 C17        -6.0444    0.3856   50.2707 C.ar    1  ZINC000821442454   -0.0500
     18 C18        -5.1844    1.4011   50.6836 C.ar    1  ZINC000821442454   -0.0300
     19 C19        -4.0969    1.8646   49.7862 C.2     1  ZINC000821442454    0.2200
     20 N20        -3.2787    2.8763   49.9979 N.2     1  ZINC000821442454   -0.2900
     21 N21        -2.4800    2.9552   48.9896 N.pl3   1  ZINC000821442454   -0.2200
     22 N22        -2.7660    2.0259   48.1460 N.2     1  ZINC000821442454   -0.0400
     23 N23        -3.7518    1.3324   48.6051 N.2     1  ZINC000821442454   -0.2700
     24 C24        -5.3468    1.9814   51.9405 C.ar    1  ZINC000821442454   -0.0500
     25 C25        -6.3618    1.5528   52.7707 C.ar    1  ZINC000821442454   -0.0800
     26 Cl26       -6.5652    2.2748   54.3363 Cl      1  ZINC000821442454   -0.0500
     27 C27        -9.9726   -0.4135   55.2942 C.3     1  ZINC000821442454    0.1400
     28 H28        -8.9151   -1.9857   58.6777 H       1  ZINC000821442454    0.0700
     29 H29        -9.6542   -0.3787   58.4790 H       1  ZINC000821442454    0.0700
     30 H30        -9.6621   -1.1710   60.0729 H       1  ZINC000821442454    0.0800
     31 H31       -11.1438   -2.9485   59.1821 H       1  ZINC000821442454    0.1300
     32 H32       -11.8830   -1.3414   58.9833 H       1  ZINC000821442454    0.1300
     33 H33       -12.8506   -0.1470   57.1509 H       1  ZINC000821442454    0.1000
     34 H34       -11.5650    1.0871   57.1120 H       1  ZINC000821442454    0.0700
     35 H35       -13.1953    0.0749   54.7367 H       1  ZINC000821442454    0.0700
     36 H36       -13.2933    1.6891   55.4821 H       1  ZINC000821442454    0.0800
     37 H37       -11.9032    1.7619   53.4396 H       1  ZINC000821442454    0.0700
     38 H38       -10.9135    2.0976   54.8800 H       1  ZINC000821442454    0.0800
     39 H39        -8.0640   -0.5857   53.8673 H       1  ZINC000821442454    0.4200
     40 H40        -7.7210   -0.8312   50.7857 H       1  ZINC000821442454    0.1600
     41 H41        -5.9197   -0.0654   49.2974 H       1  ZINC000821442454    0.1500
     42 H42        -1.7742    3.6120   48.8829 H       1  ZINC000821442454    0.4800
     43 H43        -4.6812    2.7686   52.2624 H       1  ZINC000821442454    0.1500
     44 H44        -9.3174    0.3292   55.7494 H       1  ZINC000821442454    0.0800
     45 H45        -9.4028   -1.3133   55.0623 H       1  ZINC000821442454    0.1000
@<TRIPOS>BOND
     1     1     2    1
     2     1    28    1
     3     1    29    1
     4     1    30    1
     5     2     3    1
     6     2    31    1
     7     2    32    1
     8     3     4    2
     9     3     5    2
    10     3     6   am
    11     6    27    1
    12     6     7    1
    13     7     8    1
    14     7    33    1
    15     7    34    1
    16     8     9    1
    17     8    35    1
    18     8    36    1
    19     9    10    1
    20     9    37    1
    21     9    38    1
    22    10    11    1
    23    10    12    1
    24    10    27    1
    25    12    13    2
    26    12    14   am
    27    14    15    1
    28    14    39    1
    29    15    25   ar
    30    15    16   ar
    31    16    17   ar
    32    16    40    1
    33    17    18   ar
    34    17    41    1
    35    18    19    1
    36    18    24   ar
    37    19    23    1
    38    19    20    2
    39    20    21    1
    40    21    22    1
    41    21    42    1
    42    22    23    2
    43    24    25   ar
    44    24    43    1
    45    25    26    1
    46    27    44    1
    47    27    45    1
@<TRIPOS>SUBSTRUCTURE
     1 ZINC000821442454        1 TEMP              0 ****  ****    0 ROOT


##########                                Name:    ZINC000740843182
##########                DOCK_Rotatable_Bonds:                  10
##########                         Heavy_Atoms:                  24
##########                    Molecular_Weight:              419.34
##########                DOCK_Rotatable_Bonds:                  10
##########                       Formal_Charge:          0.00999957
##########                     HBond_Acceptors:                   7
##########                        HBond_Donors:                   3
##########                         Heavy_Atoms:                  24
##########                          Grid_Score:          -33.137833
##########                     Grid_vdw_energy:          -31.381355
##########                      Grid_es_energy:           -1.756479
##########           Internal_energy_repulsive:           14.606386

@<TRIPOS>MOLECULE
ZINC000740843182
 47 48 1 0 0
SMALL
USER_CHARGES


@<TRIPOS>ATOM
      1 C1         -9.5604    2.4015   57.0170 C.3     1  ZINC000740843182   -0.1500
      2 C2         -8.1823    1.7522   56.8744 C.3     1  ZINC000740843182   -0.1000
      3 H3         -8.2651    0.8553   56.2605 H       1  ZINC000740843182    0.0900
      4 C4         -7.2204    2.7385   56.2091 C.3     1  ZINC000740843182    0.1200
      5 N5         -6.7096    2.1586   54.9646 N.am    1  ZINC000740843182   -0.7200
      6 C6         -7.3548    2.3816   53.8025 C.2     1  ZINC000740843182    0.5500
      7 O7         -8.3616    3.0627   53.7873 O.2     1  ZINC000740843182   -0.5000
      8 C8         -6.8384    1.7979   52.5467 C.ar    1  ZINC000740843182   -0.1300
      9 C9         -5.8649    2.4726   51.8084 C.ar    1  ZINC000740843182    0.0200
     10 C10        -5.3868    1.9220   50.6374 C.ar    1  ZINC000740843182   -0.6800
     11 S11        -4.1578    2.7725   49.7042 S.o2    1  ZINC000740843182    2.7000
     12 O12        -4.0033    2.0493   48.4908 O.2     1  ZINC000740843182   -0.9400
     13 O13        -4.5019    4.1505   49.7492 O.2     1  ZINC000740843182   -0.9500
     14 N14        -2.7271    2.6207   50.5244 N.am    1  ZINC000740843182   -1.0900
     15 C15        -2.6069    3.1387   51.8894 C.3     1  ZINC000740843182    0.0800
     16 C16        -1.1966    3.3723   52.4347 C.3     1  ZINC000740843182   -0.1800
     17 C17        -2.0792    4.5647   52.0600 C.3     1  ZINC000740843182   -0.1900
     18 C18        -5.8696    0.7035   50.1939 C.ar    1  ZINC000740843182    0.0100
     19 C19        -6.8343    0.0287   50.9200 C.ar    1  ZINC000740843182   -0.1200
     20 C20        -7.3183    0.5656   52.0963 C.ar    1  ZINC000740843182    0.0100
     21 Br21       -8.6374   -0.3578   53.0879 Br      1  ZINC000740843182    0.0100
     22 C22        -7.6502    1.3756   58.2585 C.3     1  ZINC000740843182   -0.1400
     23 C23        -8.6282    0.4140   58.9366 C.3     1  ZINC000740843182    0.1000
     24 H24        -9.5517    0.9422   59.1735 H       1  ZINC000740843182    0.1000
     25 C25        -8.0034   -0.1242   60.2253 C.3     1  ZINC000740843182   -0.1900
     26 O26        -8.9143   -0.6741   58.0555 O.3     1  ZINC000740843182   -0.5600
     27 H27       -10.2458    1.6988   57.4909 H       1  ZINC000740843182    0.0600
     28 H28        -9.4776    3.2984   57.6308 H       1  ZINC000740843182    0.0600
     29 H29        -9.9395    2.6698   56.0309 H       1  ZINC000740843182    0.0500
     30 H30        -7.7472    3.6668   55.9881 H       1  ZINC000740843182    0.0700
     31 H31        -6.3882    2.9445   56.8824 H       1  ZINC000740843182    0.0700
     32 H32        -5.9069    1.6141   54.9769 H       1  ZINC000740843182    0.4000
     33 H33        -5.4869    3.4238   52.1530 H       1  ZINC000740843182    0.1500
     34 H34        -1.9689    2.1889   50.1009 H       1  ZINC000740843182    0.4200
     35 H35        -3.3678    2.7963   52.5908 H       1  ZINC000740843182    0.1400
     36 H36        -1.0293    3.1836   53.4951 H       1  ZINC000740843182    0.1100
     37 H37        -0.3582    3.1408   51.7777 H       1  ZINC000740843182    0.1000
     38 H38        -1.8215    5.1173   51.1566 H       1  ZINC000740843182    0.1000
     39 H39        -2.4926    5.1603   52.8739 H       1  ZINC000740843182    0.1100
     40 H40        -5.4914    0.2774   49.2764 H       1  ZINC000740843182    0.1600
     41 H41        -7.2068   -0.9220   50.5682 H       1  ZINC000740843182    0.1500
     42 H42        -6.6785    0.8926   58.1551 H       1  ZINC000740843182    0.0700
     43 H43        -7.5461    2.2754   58.8649 H       1  ZINC000740843182    0.0800
     44 H44        -7.7852    0.7059   60.8974 H       1  ZINC000740843182    0.0700
     45 H45        -8.7001   -0.8092   60.7084 H       1  ZINC000740843182    0.0600
     46 H46        -7.0798   -0.6523   59.9885 H       1  ZINC000740843182    0.0600
     47 H47        -9.3324   -0.4082   57.2250 H       1  ZINC000740843182    0.3700
@<TRIPOS>BOND
     1     1     2    1
     2     1    27    1
     3     1    28    1
     4     1    29    1
     5     2     3    1
     6     2     4    1
     7     2    22    1
     8     4     5    1
     9     4    30    1
    10     4    31    1
    11     5     6   am
    12     5    32    1
    13     6     7    2
    14     6     8    1
    15     8    20   ar
    16     8     9   ar
    17     9    10   ar
    18     9    33    1
    19    10    11    1
    20    10    18   ar
    21    11    12    2
    22    11    13    2
    23    11    14   am
    24    14    15    1
    25    14    34    1
    26    15    17    1
    27    15    16    1
    28    15    35    1
    29    16    17    1
    30    16    36    1
    31    16    37    1
    32    17    38    1
    33    17    39    1
    34    18    19   ar
    35    18    40    1
    36    19    20   ar
    37    19    41    1
    38    20    21    1
    39    22    23    1
    40    22    42    1
    41    22    43    1
    42    23    24    1
    43    23    25    1
    44    23    26    1
    45    25    44    1
    46    25    45    1
    47    25    46    1
    48    26    47    1
@<TRIPOS>SUBSTRUCTURE
     1 ZINC000740843182        1 TEMP              0 ****  ****    0 ROOT


##########                                Name:    ZINC000929592477
##########                DOCK_Rotatable_Bonds:                   7
##########                         Heavy_Atoms:                  28
##########                    Molecular_Weight:             399.517
##########                DOCK_Rotatable_Bonds:                   7
##########                       Formal_Charge:         -8.9407e-08
##########                     HBond_Acceptors:                   8
##########                        HBond_Donors:                   3
##########                         Heavy_Atoms:                  28
##########                          Grid_Score:          -33.119247
##########                     Grid_vdw_energy:          -33.512566
##########                      Grid_es_energy:            0.393318
##########           Internal_energy_repulsive:            8.699214

@<TRIPOS>MOLECULE
ZINC000929592477
 53 56 1 0 0
SMALL
USER_CHARGES


@<TRIPOS>ATOM
      1 O1         -9.5175    1.1756   57.2345 O.2     1  ZINC000929592477   -0.5700
      2 C2         -9.6381    0.0565   56.7743 C.2     1  ZINC000929592477    0.7100
      3 N3         -9.7035   -1.0076   57.5989 N.am    1  ZINC000929592477   -0.6800
      4 C4         -9.6268   -0.8249   58.9867 C.ar    1  ZINC000929592477    0.1600
      5 C5        -10.7820   -0.8591   59.7563 C.ar    1  ZINC000929592477   -0.1300
      6 C6        -10.7070   -0.6788   61.1229 C.ar    1  ZINC000929592477   -0.0800
      7 C7         -9.4751   -0.4634   61.7283 C.ar    1  ZINC000929592477   -0.1000
      8 S8         -9.3786   -0.2339   63.4726 S.3     1  ZINC000929592477   -0.1100
      9 C9         -7.9534    0.8726   63.6604 C.3     1  ZINC000929592477   -0.0800
     10 C10        -8.2835    2.2806   63.1058 C.3     1  ZINC000929592477   -0.1200
     11 C11        -7.2829    3.1892   63.8623 C.3     1  ZINC000929592477   -0.1200
     12 C12        -7.2251    2.5884   65.2820 C.3     1  ZINC000929592477   -0.1200
     13 C13        -7.6514    1.1154   65.1536 C.3     1  ZINC000929592477   -0.1000
     14 C14        -8.3193   -0.4298   60.9580 C.ar    1  ZINC000929592477   -0.1200
     15 C15        -8.3948   -0.6154   59.5921 C.ar    1  ZINC000929592477   -0.1000
     16 N16        -9.7119   -0.1192   55.4401 N.am    1  ZINC000929592477   -0.7300
     17 C17        -9.6408    1.0375   54.5439 C.3     1  ZINC000929592477    0.1500
     18 H18       -10.0925    1.9131   55.0100 H       1  ZINC000929592477    0.1200
     19 C19       -10.3249    0.7235   53.1871 C.3     1  ZINC000929592477   -0.1400
     20 C20        -9.1924   -0.0156   52.4316 C.3     1  ZINC000929592477    0.1100
     21 N21        -7.9549    0.6762   52.8357 N.pl3   1  ZINC000929592477   -0.6000
     22 C22        -6.7802    0.7112   52.1126 C.2     1  ZINC000929592477    0.4600
     23 C23        -5.7761    1.6009   52.4565 C.2     1  ZINC000929592477   -0.4000
     24 C24        -4.5984    1.6044   51.6963 C.2     1  ZINC000929592477    0.5300
     25 O25        -3.6874    2.3716   51.9641 O.2     1  ZINC000929592477   -0.5500
     26 N26        -4.4907    0.7432   50.6628 N.am    1  ZINC000929592477   -0.6400
     27 C27        -5.5006   -0.1013   50.3733 C.2     1  ZINC000929592477    0.4100
     28 N28        -6.6006   -0.1206   51.0745 N.2     1  ZINC000929592477   -0.5700
     29 C29        -8.1795    1.3265   54.1404 C.3     1  ZINC000929592477    0.1100
     30 H30        -9.8038   -1.9000   57.2320 H       1  ZINC000929592477    0.4100
     31 H31       -11.7395   -1.0264   59.2856 H       1  ZINC000929592477    0.1300
     32 H32       -11.6056   -0.7047   61.7212 H       1  ZINC000929592477    0.1300
     33 H33        -7.0803    0.4573   63.1572 H       1  ZINC000929592477    0.1000
     34 H34        -8.1076    2.3233   62.0309 H       1  ZINC000929592477    0.0700
     35 H35        -9.3111    2.5575   63.3414 H       1  ZINC000929592477    0.0800
     36 H36        -6.3007    3.1501   63.3912 H       1  ZINC000929592477    0.0700
     37 H37        -7.6500    4.2150   63.8968 H       1  ZINC000929592477    0.0700
     38 H38        -6.2094    2.6503   65.6726 H       1  ZINC000929592477    0.0700
     39 H39        -7.9120    3.1198   65.9406 H       1  ZINC000929592477    0.0700
     40 H40        -8.5452    0.9320   65.7499 H       1  ZINC000929592477    0.0700
     41 H41        -6.8426    0.4627   65.4818 H       1  ZINC000929592477    0.0800
     42 H42        -7.3615   -0.2625   61.4282 H       1  ZINC000929592477    0.1300
     43 H43        -7.4964   -0.5896   58.9932 H       1  ZINC000929592477    0.1400
     44 H44        -9.8121   -1.0116   55.0733 H       1  ZINC000929592477    0.4000
     45 H45       -11.1897    0.0748   53.3265 H       1  ZINC000929592477    0.0900
     46 H46       -10.6058    1.6408   52.6698 H       1  ZINC000929592477    0.0900
     47 H47        -9.1569   -1.0629   52.7316 H       1  ZINC000929592477    0.0700
     48 H48        -9.3384    0.0666   51.3545 H       1  ZINC000929592477    0.0800
     49 H49        -5.8976    2.2762   53.2904 H       1  ZINC000929592477    0.1500
     50 H50        -3.6830    0.7322   50.1258 H       1  ZINC000929592477    0.4200
     51 H51        -5.3948   -0.7824   49.5419 H       1  ZINC000929592477    0.2100
     52 H52        -8.0228    2.4014   54.0507 H       1  ZINC000929592477    0.0900
     53 H53        -7.4990    0.9112   54.8837 H       1  ZINC000929592477    0.0800
@<TRIPOS>BOND
     1     1     2    2
     2     2     3   am
     3     2    16   am
     4     3     4    1
     5     3    30    1
     6     4    15   ar
     7     4     5   ar
     8     5     6   ar
     9     5    31    1
    10     6     7   ar
    11     6    32    1
    12     7     8    1
    13     7    14   ar
    14     8     9    1
    15     9    13    1
    16     9    10    1
    17     9    33    1
    18    10    11    1
    19    10    34    1
    20    10    35    1
    21    11    12    1
    22    11    36    1
    23    11    37    1
    24    12    13    1
    25    12    38    1
    26    12    39    1
    27    13    40    1
    28    13    41    1
    29    14    15   ar
    30    14    42    1
    31    15    43    1
    32    16    17    1
    33    16    44    1
    34    17    18    1
    35    17    29    1
    36    17    19    1
    37    19    20    1
    38    19    45    1
    39    19    46    1
    40    20    21    1
    41    20    47    1
    42    20    48    1
    43    21    22    1
    44    21    29    1
    45    22    28    1
    46    22    23    2
    47    23    24    1
    48    23    49    1
    49    24    25    2
    50    24    26   am
    51    26    27    1
    52    26    50    1
    53    27    28    2
    54    27    51    1
    55    29    52    1
    56    29    53    1
@<TRIPOS>SUBSTRUCTURE
     1 ZINC000929592477        1 TEMP              0 ****  ****    0 ROOT


##########                                Name:    ZINC000066361645
##########                DOCK_Rotatable_Bonds:                   8
##########                         Heavy_Atoms:                  27
##########                    Molecular_Weight:             392.519
##########                DOCK_Rotatable_Bonds:                   8
##########                       Formal_Charge:           0.0100004
##########                     HBond_Acceptors:                   7
##########                        HBond_Donors:                   2
##########                         Heavy_Atoms:                  27
##########                          Grid_Score:          -33.097118
##########                     Grid_vdw_energy:          -32.462826
##########                      Grid_es_energy:           -0.634292
##########           Internal_energy_repulsive:           10.923802

@<TRIPOS>MOLECULE
ZINC000066361645
 55 57 1 0 0
SMALL
USER_CHARGES


@<TRIPOS>ATOM
      1 C1         -1.7202    3.8562   52.9877 C.3     1  ZINC000066361645   -0.1400
      2 S2         -3.0314    3.9757   51.7400 S.3     1  ZINC000066361645   -0.1100
      3 C3         -2.2748    3.2921   50.3031 C.ar    1  ZINC000066361645   -0.1200
      4 C4         -0.8931    3.2793   50.1850 C.ar    1  ZINC000066361645   -0.1100
      5 C5         -0.2962    2.7406   49.0544 C.ar    1  ZINC000066361645    0.0500
      6 C6         -1.0832    2.2112   48.0390 C.ar    1  ZINC000066361645    0.0700
      7 C7         -2.4656    2.2245   48.1543 C.ar    1  ZINC000066361645   -0.1100
      8 C8         -3.0640    2.7577   49.2852 C.ar    1  ZINC000066361645    0.1800
      9 N9         -4.4623    2.7700   49.4005 N.am    1  ZINC000066361645   -0.6600
     10 C10        -5.1244    1.6334   49.6939 C.2     1  ZINC000066361645    0.5100
     11 O11        -4.5114    0.5996   49.8583 O.2     1  ZINC000066361645   -0.5000
     12 C12        -6.6262    1.6467   49.8177 C.3     1  ZINC000066361645   -0.1500
     13 C13        -7.0364    2.5922   50.9484 C.3     1  ZINC000066361645    0.1600
     14 H14        -6.2681    3.3538   51.0820 H       1  ZINC000066361645    0.1000
     15 C15        -7.1968    1.7967   52.2456 C.3     1  ZINC000066361645   -0.1600
     16 N16        -8.3082    3.2356   50.6098 N.am    1  ZINC000066361645   -0.7200
     17 C17        -8.3155    4.3855   49.9067 C.2     1  ZINC000066361645    0.5300
     18 O18        -7.2693    4.8868   49.5533 O.2     1  ZINC000066361645   -0.5400
     19 C19        -9.6237    5.0482   49.5598 C.3     1  ZINC000066361645   -0.1100
     20 C20        -9.9943    4.7191   48.1124 C.3     1  ZINC000066361645   -0.1100
     21 C21       -11.3225    5.3920   47.7603 C.3     1  ZINC000066361645   -0.1200
     22 C22       -12.4183    4.8785   48.6965 C.3     1  ZINC000066361645   -0.1200
     23 C23       -12.0478    5.2077   50.1441 C.3     1  ZINC000066361645   -0.1200
     24 C24       -10.7195    4.5348   50.4962 C.3     1  ZINC000066361645   -0.1000
     25 O25        -0.5131    1.6713   46.9255 O.3     1  ZINC000066361645   -0.3000
     26 C26         0.8548    2.0099   46.6739 C.3     1  ZINC000066361645    0.0200
     27 C27         1.6366    1.8572   47.9856 C.3     1  ZINC000066361645    0.0200
     28 O28         1.0621    2.7405   48.9549 O.3     1  ZINC000066361645   -0.3100
     29 H29        -1.4382    2.8116   53.1195 H       1  ZINC000066361645    0.0900
     30 H30        -0.8525    4.4281   52.6589 H       1  ZINC000066361645    0.0900
     31 H31        -2.0820    4.2571   53.9345 H       1  ZINC000066361645    0.1100
     32 H32        -0.2807    3.6897   50.9744 H       1  ZINC000066361645    0.1400
     33 H33        -3.0765    1.8153   47.3634 H       1  ZINC000066361645    0.1600
     34 H34        -4.9525    3.5967   49.2690 H       1  ZINC000066361645    0.4100
     35 H35        -7.0651    1.9891   48.8806 H       1  ZINC000066361645    0.1000
     36 H36        -6.9814    0.6402   50.0389 H       1  ZINC000066361645    0.1200
     37 H37        -7.9651    1.0351   52.1120 H       1  ZINC000066361645    0.0600
     38 H38        -6.2506    1.3180   52.4975 H       1  ZINC000066361645    0.0700
     39 H39        -7.4891    2.4704   53.0511 H       1  ZINC000066361645    0.0700
     40 H40        -9.1451    2.8341   50.8914 H       1  ZINC000066361645    0.4000
     41 H41        -9.5255    6.1279   49.6732 H       1  ZINC000066361645    0.1000
     42 H42        -9.2137    5.0849   47.4453 H       1  ZINC000066361645    0.0600
     43 H43       -10.0927    3.6394   47.9990 H       1  ZINC000066361645    0.0700
     44 H44       -11.2242    6.4715   47.8737 H       1  ZINC000066361645    0.0600
     45 H45       -11.5866    5.1575   46.7291 H       1  ZINC000066361645    0.0700
     46 H46       -13.3645    5.3579   48.4457 H       1  ZINC000066361645    0.0600
     47 H47       -12.5166    3.7990   48.5832 H       1  ZINC000066361645    0.0600
     48 H48       -11.9494    6.2874   50.2574 H       1  ZINC000066361645    0.0600
     49 H49       -12.8284    4.8420   50.8112 H       1  ZINC000066361645    0.0700
     50 H50       -10.8179    3.4552   50.3828 H       1  ZINC000066361645    0.0700
     51 H51       -10.4556    4.7694   51.5274 H       1  ZINC000066361645    0.0700
     52 H52         1.2670    1.3391   45.9201 H       1  ZINC000066361645    0.1300
     53 H53         0.9202    3.0405   46.3248 H       1  ZINC000066361645    0.0800
     54 H54         1.5657    0.8283   48.3382 H       1  ZINC000066361645    0.0800
     55 H55         2.6821    2.1195   47.8232 H       1  ZINC000066361645    0.1200
@<TRIPOS>BOND
     1     1     2    1
     2     1    29    1
     3     1    30    1
     4     1    31    1
     5     2     3    1
     6     3     8   ar
     7     3     4   ar
     8     4     5   ar
     9     4    32    1
    10     5    28    1
    11     5     6   ar
    12     6     7   ar
    13     6    25    1
    14     7     8   ar
    15     7    33    1
    16     8     9    1
    17     9    10   am
    18     9    34    1
    19    10    11    2
    20    10    12    1
    21    12    13    1
    22    12    35    1
    23    12    36    1
    24    13    14    1
    25    13    15    1
    26    13    16    1
    27    15    37    1
    28    15    38    1
    29    15    39    1
    30    16    17   am
    31    16    40    1
    32    17    18    2
    33    17    19    1
    34    19    24    1
    35    19    20    1
    36    19    41    1
    37    20    21    1
    38    20    42    1
    39    20    43    1
    40    21    22    1
    41    21    44    1
    42    21    45    1
    43    22    23    1
    44    22    46    1
    45    22    47    1
    46    23    24    1
    47    23    48    1
    48    23    49    1
    49    24    50    1
    50    24    51    1
    51    25    26    1
    52    26    27    1
    53    26    52    1
    54    26    53    1
    55    27    28    1
    56    27    54    1
    57    27    55    1
@<TRIPOS>SUBSTRUCTURE
     1 ZINC000066361645        1 TEMP              0 ****  ****    0 ROOT


##########                                Name:    ZINC000541000201
##########                DOCK_Rotatable_Bonds:                  10
##########                         Heavy_Atoms:                  30
##########                    Molecular_Weight:             420.413
##########                DOCK_Rotatable_Bonds:                  10
##########                       Formal_Charge:               -0.03
##########                     HBond_Acceptors:                   9
##########                        HBond_Donors:                   1
##########                         Heavy_Atoms:                  30
##########                          Grid_Score:          -33.086452
##########                     Grid_vdw_energy:          -33.206139
##########                      Grid_es_energy:            0.119684
##########           Internal_energy_repulsive:           19.297956

@<TRIPOS>MOLECULE
ZINC000541000201
 52 54 1 0 0
SMALL
USER_CHARGES


@<TRIPOS>ATOM
      1 C1        -10.8252    3.7807   54.4483 C.3     1  ZINC000541000201    0.0400
      2 O2         -9.6792    2.9463   54.1341 O.3     1  ZINC000541000201   -0.3500
      3 C3         -9.8853    1.9184   53.2957 C.2     1  ZINC000541000201    0.4500
      4 O4        -10.7162    2.0078   52.4231 O.2     1  ZINC000541000201   -0.4900
      5 C5         -9.0802    0.6531   53.4429 C.3     1  ZINC000541000201    0.2100
      6 H6         -9.7019   -0.2050   53.1872 H       1  ZINC000541000201    0.1400
      7 N7         -8.6187    0.5262   54.8276 N.am    1  ZINC000541000201   -0.7100
      8 C8         -9.4253   -0.0192   55.7594 C.2     1  ZINC000541000201    0.5800
      9 O9        -10.5353   -0.4074   55.4507 O.2     1  ZINC000541000201   -0.5300
     10 C10        -8.9609   -0.1454   57.1550 C.ar    1  ZINC000541000201   -0.2300
     11 C11        -9.6025   -1.0219   58.0421 C.ar    1  ZINC000541000201    0.0200
     12 C12        -9.1318   -1.1048   59.3366 C.ar    1  ZINC000541000201   -0.2000
     13 C13        -8.0454   -0.3232   59.7168 C.ar    1  ZINC000541000201    0.3500
     14 O14        -7.5790   -0.4006   60.9866 O.3     1  ZINC000541000201   -0.2900
     15 C15        -8.2171    0.4244   61.9635 C.3     1  ZINC000541000201    0.0800
     16 C16        -9.0719    1.5173   61.2752 C.3     1  ZINC000541000201   -0.1400
     17 C17       -10.1085    1.8790   62.3679 C.3     1  ZINC000541000201   -0.1200
     18 C18       -10.4399    0.5290   63.0366 C.3     1  ZINC000541000201   -0.1200
     19 C19        -9.2373   -0.3959   62.7796 C.3     1  ZINC000541000201   -0.1200
     20 N20        -7.4605    0.4950   58.8553 N.ar    1  ZINC000541000201   -0.5400
     21 C21        -7.8732    0.6015   57.6098 C.ar    1  ZINC000541000201    0.1800
     22 C22        -7.8904    0.7043   52.5195 C.ar    1  ZINC000541000201   -0.1300
     23 C23        -6.8469    1.5714   52.7860 C.ar    1  ZINC000541000201   -0.0700
     24 C24        -5.7550    1.6203   51.9410 C.ar    1  ZINC000541000201   -0.1300
     25 C25        -5.7060    0.7981   50.8246 C.ar    1  ZINC000541000201    0.1200
     26 O26        -4.6328    0.8442   49.9922 O.3     1  ZINC000541000201   -0.3200
     27 C27        -4.2572    2.1276   49.4884 C.3     1  ZINC000541000201    0.4100
     28 F28        -3.6003    1.9734   48.2628 F       1  ZINC000541000201   -0.2000
     29 F29        -5.4021    2.9112   49.3084 F       1  ZINC000541000201   -0.2000
     30 C30        -6.7541   -0.0712   50.5598 C.ar    1  ZINC000541000201   -0.1900
     31 C31        -7.8415   -0.1198   51.4105 C.ar    1  ZINC000541000201   -0.0500
     32 H32       -10.5217    4.5718   55.1340 H       1  ZINC000541000201    0.1000
     33 H33       -11.2142    4.2239   53.5315 H       1  ZINC000541000201    0.0600
     34 H34       -11.6002    3.1727   54.9152 H       1  ZINC000541000201    0.0600
     35 H35        -7.7326    0.8348   55.0737 H       1  ZINC000541000201    0.4100
     36 H36       -10.4443   -1.6169   57.7202 H       1  ZINC000541000201    0.1600
     37 H37        -9.6017   -1.7690   60.0469 H       1  ZINC000541000201    0.1500
     38 H38        -7.4759    0.8759   62.6230 H       1  ZINC000541000201    0.1000
     39 H39        -8.4604    2.3831   61.0212 H       1  ZINC000541000201    0.0700
     40 H40        -9.5671    1.1195   60.3895 H       1  ZINC000541000201    0.0800
     41 H41        -9.6741    2.5674   63.0928 H       1  ZINC000541000201    0.0700
     42 H42       -11.0021    2.3113   61.9177 H       1  ZINC000541000201    0.0700
     43 H43       -10.5816    0.6680   64.1085 H       1  ZINC000541000201    0.0700
     44 H44       -11.3398    0.1034   62.5928 H       1  ZINC000541000201    0.0700
     45 H45        -9.5536   -1.2704   62.2110 H       1  ZINC000541000201    0.0800
     46 H46        -8.7954   -0.7057   63.7265 H       1  ZINC000541000201    0.0700
     47 H47        -7.3706    1.2795   56.9359 H       1  ZINC000541000201    0.1600
     48 H48        -6.8855    2.2112   53.6552 H       1  ZINC000541000201    0.1300
     49 H49        -4.9405    2.2982   52.1493 H       1  ZINC000541000201    0.1400
     50 H50        -3.5905    2.6161   50.1990 H       1  ZINC000541000201    0.1900
     51 H51        -6.7184   -0.7120   49.6912 H       1  ZINC000541000201    0.1400
     52 H52        -8.6575   -0.7967   51.2049 H       1  ZINC000541000201    0.1400
@<TRIPOS>BOND
     1     1     2    1
     2     1    32    1
     3     1    33    1
     4     1    34    1
     5     2     3    1
     6     3     4    2
     7     3     5    1
     8     5     6    1
     9     5     7    1
    10     5    22    1
    11     7     8   am
    12     7    35    1
    13     8     9    2
    14     8    10    1
    15    10    21   ar
    16    10    11   ar
    17    11    12   ar
    18    11    36    1
    19    12    13   ar
    20    12    37    1
    21    13    14    1
    22    13    20   ar
    23    14    15    1
    24    15    19    1
    25    15    16    1
    26    15    38    1
    27    16    17    1
    28    16    39    1
    29    16    40    1
    30    17    18    1
    31    17    41    1
    32    17    42    1
    33    18    19    1
    34    18    43    1
    35    18    44    1
    36    19    45    1
    37    19    46    1
    38    20    21   ar
    39    21    47    1
    40    22    31   ar
    41    22    23   ar
    42    23    24   ar
    43    23    48    1
    44    24    25   ar
    45    24    49    1
    46    25    26    1
    47    25    30   ar
    48    26    27    1
    49    27    28    1
    50    27    29    1
    51    27    50    1
    52    30    31   ar
    53    30    51    1
    54    31    52    1
@<TRIPOS>SUBSTRUCTURE
     1 ZINC000541000201        1 TEMP              0 ****  ****    0 ROOT


##########                                Name:    ZINC000482187991
##########                DOCK_Rotatable_Bonds:                  11
##########                         Heavy_Atoms:                  29
##########                    Molecular_Weight:             407.414
##########                DOCK_Rotatable_Bonds:                  11
##########                       Formal_Charge:           0.0299996
##########                     HBond_Acceptors:                   8
##########                        HBond_Donors:                   1
##########                         Heavy_Atoms:                  29
##########                          Grid_Score:          -33.078423
##########                     Grid_vdw_energy:          -28.550947
##########                      Grid_es_energy:           -4.527474
##########           Internal_energy_repulsive:           12.196700

@<TRIPOS>MOLECULE
ZINC000482187991
 52 53 1 0 0
SMALL
USER_CHARGES


@<TRIPOS>ATOM
      1 C1         -4.8116    2.6382   49.7948 C.3     1  ZINC000482187991    0.0200
      2 O2         -5.9988    1.8430   49.8162 O.3     1  ZINC000482187991   -0.3000
      3 C3         -7.1535    2.4670   50.1726 C.ar    1  ZINC000482187991    0.1400
      4 C4         -7.6723    3.4669   49.3735 C.ar    1  ZINC000482187991   -0.1700
      5 C5         -8.8612    4.1084   49.7411 C.ar    1  ZINC000482187991   -0.1000
      6 C6         -9.4163    5.1718   48.8939 C.2     1  ZINC000482187991    0.4000
      7 O7         -9.2689    6.3347   49.2058 O.2     1  ZINC000482187991   -0.4500
      8 C8        -10.1688    4.8184   47.6370 C.3     1  ZINC000482187991   -0.1500
      9 C9        -11.5786    5.4091   47.7034 C.3     1  ZINC000482187991   -0.1300
     10 C10       -12.4451    4.5434   48.5813 C.2     1  ZINC000482187991    0.5200
     11 O11       -12.5089    4.7601   49.7729 O.2     1  ZINC000482187991   -0.5200
     12 N12       -13.1490    3.5282   48.0425 N.am    1  ZINC000482187991   -0.7200
     13 C13       -13.9900    2.6855   48.8962 C.3     1  ZINC000482187991    0.1500
     14 H14       -13.4552    2.4534   49.8172 H       1  ZINC000482187991    0.1300
     15 C15       -14.3196    1.4064   48.1708 C.ar    1  ZINC000482187991   -0.1100
     16 C16       -13.8674    0.1964   48.6630 C.ar    1  ZINC000482187991   -0.1000
     17 C17       -14.1696   -0.9768   47.9975 C.ar    1  ZINC000482187991   -0.1200
     18 C18       -14.9246   -0.9402   46.8401 C.ar    1  ZINC000482187991   -0.1100
     19 C19       -15.3776    0.2697   46.3484 C.ar    1  ZINC000482187991   -0.1200
     20 C20       -15.0789    1.4426   47.0162 C.ar    1  ZINC000482187991   -0.1000
     21 C21       -15.2840    3.4299   49.2314 C.3     1  ZINC000482187991    0.2500
     22 F22       -15.1151    4.1460   50.4213 F       1  ZINC000482187991   -0.1900
     23 F23       -15.5946    4.3156   48.1941 F       1  ZINC000482187991   -0.2000
     24 C24        -9.5201    3.7331   50.9181 C.ar    1  ZINC000482187991   -0.1900
     25 C25        -8.9952    2.7323   51.7122 C.ar    1  ZINC000482187991    0.1400
     26 O26        -9.6347    2.3667   52.8555 O.3     1  ZINC000482187991   -0.3000
     27 C27       -10.9591    1.8474   52.7204 C.3     1  ZINC000482187991    0.0200
     28 C28        -7.8147    2.0926   51.3404 C.ar    1  ZINC000482187991    0.0600
     29 O29        -7.3018    1.1085   52.1237 O.3     1  ZINC000482187991   -0.3100
     30 C30        -7.7352   -0.2265   51.8551 C.3     1  ZINC000482187991    0.0400
     31 H31        -3.9655    2.0199   49.4949 H       1  ZINC000482187991    0.1100
     32 H32        -4.9344    3.4554   49.0840 H       1  ZINC000482187991    0.0600
     33 H33        -4.6294    3.0459   50.7892 H       1  ZINC000482187991    0.0600
     34 H34        -7.1611    3.7539   48.4664 H       1  ZINC000482187991    0.1500
     35 H35        -9.6444    5.2261   46.7727 H       1  ZINC000482187991    0.1100
     36 H36       -10.2331    3.7342   47.5447 H       1  ZINC000482187991    0.1100
     37 H37       -11.5315    6.4157   48.1189 H       1  ZINC000482187991    0.1000
     38 H38       -12.0033    5.4495   46.7004 H       1  ZINC000482187991    0.1000
     39 H39       -13.0989    3.3556   47.0892 H       1  ZINC000482187991    0.4100
     40 H40       -13.2775    0.1678   49.5673 H       1  ZINC000482187991    0.1200
     41 H41       -13.8157   -1.9222   48.3816 H       1  ZINC000482187991    0.1300
     42 H42       -15.1602   -1.8568   46.3197 H       1  ZINC000482187991    0.1300
     43 H43       -15.9671    0.2984   45.4439 H       1  ZINC000482187991    0.1300
     44 H44       -15.4329    2.3879   46.6320 H       1  ZINC000482187991    0.1300
     45 H45       -16.0954    2.7120   49.3515 H       1  ZINC000482187991    0.1200
     46 H46       -10.4372    4.2259   51.2050 H       1  ZINC000482187991    0.1500
     47 H47       -11.5979    2.5978   52.2546 H       1  ZINC000482187991    0.0600
     48 H48       -10.9368    0.9525   52.0984 H       1  ZINC000482187991    0.0600
     49 H49       -11.3529    1.5957   53.7051 H       1  ZINC000482187991    0.1100
     50 H50        -8.8166   -0.2888   51.9770 H       1  ZINC000482187991    0.0500
     51 H51        -7.4686   -0.4965   50.8332 H       1  ZINC000482187991    0.0500
     52 H52        -7.2511   -0.9125   52.5502 H       1  ZINC000482187991    0.1000
@<TRIPOS>BOND
     1     1     2    1
     2     1    31    1
     3     1    32    1
     4     1    33    1
     5     2     3    1
     6     3    28   ar
     7     3     4   ar
     8     4     5   ar
     9     4    34    1
    10     5     6    1
    11     5    24   ar
    12     6     7    2
    13     6     8    1
    14     8     9    1
    15     8    35    1
    16     8    36    1
    17     9    10    1
    18     9    37    1
    19     9    38    1
    20    10    11    2
    21    10    12   am
    22    12    13    1
    23    12    39    1
    24    13    14    1
    25    13    15    1
    26    13    21    1
    27    15    20   ar
    28    15    16   ar
    29    16    17   ar
    30    16    40    1
    31    17    18   ar
    32    17    41    1
    33    18    19   ar
    34    18    42    1
    35    19    20   ar
    36    19    43    1
    37    20    44    1
    38    21    22    1
    39    21    23    1
    40    21    45    1
    41    24    25   ar
    42    24    46    1
    43    25    26    1
    44    25    28   ar
    45    26    27    1
    46    27    47    1
    47    27    48    1
    48    27    49    1
    49    28    29    1
    50    29    30    1
    51    30    50    1
    52    30    51    1
    53    30    52    1
@<TRIPOS>SUBSTRUCTURE
     1 ZINC000482187991        1 TEMP              0 ****  ****    0 ROOT


##########                                Name:    ZINC000432058199
##########                DOCK_Rotatable_Bonds:                   5
##########                         Heavy_Atoms:                  30
##########                    Molecular_Weight:             406.441
##########                DOCK_Rotatable_Bonds:                   5
##########                       Formal_Charge:        -4.02331e-07
##########                     HBond_Acceptors:                   8
##########                        HBond_Donors:                   1
##########                         Heavy_Atoms:                  30
##########                          Grid_Score:          -33.076405
##########                     Grid_vdw_energy:          -33.139484
##########                      Grid_es_energy:            0.063081
##########           Internal_energy_repulsive:           17.439415

@<TRIPOS>MOLECULE
ZINC000432058199
 52 55 1 0 0
SMALL
USER_CHARGES


@<TRIPOS>ATOM
      1 C1          2.5608    1.4514   45.8763 C.3     1  ZINC000432058199    0.0300
      2 O2          1.1508    1.4115   46.1051 O.3     1  ZINC000432058199   -0.3100
      3 C3          0.6855    2.0619   47.2040 C.ar    1  ZINC000432058199    0.1300
      4 C4          1.5694    2.7239   48.0447 C.ar    1  ZINC000432058199   -0.1900
      5 C5          1.1003    3.3868   49.1635 C.ar    1  ZINC000432058199   -0.0800
      6 C6         -0.2498    3.3939   49.4506 C.ar    1  ZINC000432058199   -0.1100
      7 C7         -1.1441    2.7321   48.6112 C.ar    1  ZINC000432058199    0.0100
      8 C8         -2.5964    2.7387   48.9175 C.2     1  ZINC000432058199    0.2100
      9 N9         -3.5526    2.2764   48.1549 N.2     1  ZINC000432058199   -0.3700
     10 O10        -4.6280    2.4325   48.6939 O.3     1  ZINC000432058199    0.1200
     11 C11        -4.4632    3.0234   49.8815 C.2     1  ZINC000432058199    0.1600
     12 C12        -5.5512    3.3891   50.8580 C.3     1  ZINC000432058199    0.2500
     13 H13        -6.3117    3.9815   50.3494 H       1  ZINC000432058199    0.1500
     14 C14        -4.9531    4.2043   52.0063 C.3     1  ZINC000432058199   -0.1700
     15 N15        -6.1594    2.1676   51.3914 N.am    1  ZINC000432058199   -0.5800
     16 C16        -5.4739    1.0636   51.7095 C.2     1  ZINC000432058199    0.7000
     17 O17        -4.2691    0.9581   51.5882 O.2     1  ZINC000432058199   -0.5100
     18 N18        -6.2669    0.0836   52.1787 N.am    1  ZINC000432058199   -0.7200
     19 C19        -7.6420    0.6118   52.1660 C.3     1  ZINC000432058199    0.1400
     20 H20        -8.2751    0.0173   51.5073 H       1  ZINC000432058199    0.1400
     21 C21        -8.2115    0.6419   53.5609 C.ar    1  ZINC000432058199   -0.1000
     22 C22        -9.2912   -0.1586   53.8841 C.ar    1  ZINC000432058199   -0.1000
     23 C23        -9.8137   -0.1309   55.1636 C.ar    1  ZINC000432058199   -0.0800
     24 C24       -10.9909   -1.0032   55.5159 C.3     1  ZINC000432058199   -0.1200
     25 C25        -9.2558    0.6966   56.1202 C.ar    1  ZINC000432058199   -0.1100
     26 C26        -8.1759    1.4967   55.7971 C.ar    1  ZINC000432058199   -0.0800
     27 C27        -7.5680    2.3992   56.8398 C.3     1  ZINC000432058199   -0.1200
     28 C28        -7.6508    1.4659   54.5188 C.ar    1  ZINC000432058199   -0.1000
     29 C29        -7.4780    2.0193   51.6274 C.2     1  ZINC000432058199    0.5300
     30 O30        -8.3518    2.8390   51.4421 O.2     1  ZINC000432058199   -0.4500
     31 N31        -3.1778    3.2187   50.0400 N.2     1  ZINC000432058199   -0.4500
     32 C32        -0.6719    2.0690   47.4817 C.ar    1  ZINC000432058199   -0.1200
     33 H33         2.7976    0.8950   44.9694 H       1  ZINC000432058199    0.1000
     34 H34         2.8811    2.4870   45.7612 H       1  ZINC000432058199    0.0600
     35 H35         3.0793    1.0028   46.7237 H       1  ZINC000432058199    0.0600
     36 H36         2.6267    2.7208   47.8245 H       1  ZINC000432058199    0.1400
     37 H37         1.7921    3.9001   49.8149 H       1  ZINC000432058199    0.1400
     38 H38        -0.6132    3.9121   50.3258 H       1  ZINC000432058199    0.1400
     39 H39        -4.1926    3.6119   52.5149 H       1  ZINC000432058199    0.0900
     40 H40        -4.5005    5.1131   51.6095 H       1  ZINC000432058199    0.0900
     41 H41        -5.7401    4.4688   52.7125 H       1  ZINC000432058199    0.0900
     42 H42        -5.9878   -0.7991   52.4685 H       1  ZINC000432058199    0.4500
     43 H43        -9.7267   -0.8053   53.1368 H       1  ZINC000432058199    0.1200
     44 H44       -10.6334   -1.9668   55.8789 H       1  ZINC000432058199    0.0700
     45 H45       -11.5824   -0.5188   56.2928 H       1  ZINC000432058199    0.0700
     46 H46       -11.6085   -1.1549   54.6306 H       1  ZINC000432058199    0.0700
     47 H47        -9.6640    0.7182   57.1198 H       1  ZINC000432058199    0.1300
     48 H48        -6.7802    1.8635   57.3693 H       1  ZINC000432058199    0.0700
     49 H49        -7.1467    3.2806   56.3564 H       1  ZINC000432058199    0.0700
     50 H50        -8.3378    2.7063   57.5479 H       1  ZINC000432058199    0.0700
     51 H51        -6.8071    2.0910   54.2663 H       1  ZINC000432058199    0.1300
     52 H52        -1.3609    1.5547   46.8282 H       1  ZINC000432058199    0.1400
@<TRIPOS>BOND
     1     1     2    1
     2     1    33    1
     3     1    34    1
     4     1    35    1
     5     2     3    1
     6     3    32   ar
     7     3     4   ar
     8     4     5   ar
     9     4    36    1
    10     5     6   ar
    11     5    37    1
    12     6     7   ar
    13     6    38    1
    14     7     8    1
    15     7    32   ar
    16     8    31    1
    17     8     9    2
    18     9    10    1
    19    10    11    1
    20    11    12    1
    21    11    31    2
    22    12    13    1
    23    12    14    1
    24    12    15    1
    25    14    39    1
    26    14    40    1
    27    14    41    1
    28    15    29   am
    29    15    16   am
    30    16    17    2
    31    16    18   am
    32    18    19    1
    33    18    42    1
    34    19    20    1
    35    19    21    1
    36    19    29    1
    37    21    28   ar
    38    21    22   ar
    39    22    23   ar
    40    22    43    1
    41    23    24    1
    42    23    25   ar
    43    24    44    1
    44    24    45    1
    45    24    46    1
    46    25    26   ar
    47    25    47    1
    48    26    27    1
    49    26    28   ar
    50    27    48    1
    51    27    49    1
    52    27    50    1
    53    28    51    1
    54    29    30    2
    55    32    52    1
@<TRIPOS>SUBSTRUCTURE
     1 ZINC000432058199        1 TEMP              0 ****  ****    0 ROOT


##########                                Name:    ZINC001004075025
##########                DOCK_Rotatable_Bonds:                   8
##########                         Heavy_Atoms:                  25
##########                    Molecular_Weight:              349.43
##########                DOCK_Rotatable_Bonds:                   8
##########                       Formal_Charge:         -0.00999999
##########                     HBond_Acceptors:                   7
##########                        HBond_Donors:                   1
##########                         Heavy_Atoms:                  25
##########                          Grid_Score:          -33.069729
##########                     Grid_vdw_energy:          -31.510595
##########                      Grid_es_energy:           -1.559134
##########           Internal_energy_repulsive:            7.281387

@<TRIPOS>MOLECULE
ZINC001004075025
 52 54 1 0 0
SMALL
USER_CHARGES


@<TRIPOS>ATOM
      1 C1         -8.7595    0.5020   58.8961 C.3     1  ZINC001004075025   -0.1500
      2 C2         -7.4836    1.3097   58.6496 C.3     1  ZINC001004075025   -0.1200
      3 C3         -7.6298    2.1114   57.3547 C.3     1  ZINC001004075025    0.0800
      4 H4         -8.5096    2.7528   57.4047 H       1  ZINC001004075025    0.0700
      5 C5         -6.3588    2.9609   57.1018 C.3     1  ZINC001004075025   -0.1500
      6 C6         -6.4223    3.1346   55.5598 C.3     1  ZINC001004075025   -0.1400
      7 C7         -7.0352    1.7930   55.1039 C.3     1  ZINC001004075025    0.0700
      8 H8         -6.2451    1.1189   54.7733 H       1  ZINC001004075025    0.1100
      9 C9         -8.0080    2.0317   53.9779 C.2     1  ZINC001004075025    0.5300
     10 O10        -9.1793    2.2314   54.2205 O.2     1  ZINC001004075025   -0.5200
     11 N11        -7.5762    2.0231   52.7012 N.am    1  ZINC001004075025   -0.6500
     12 C12        -6.2890    1.8180   52.0201 C.3     1  ZINC001004075025    0.1100
     13 C13        -6.8161    2.6958   50.8764 C.3     1  ZINC001004075025   -0.1400
     14 C14        -6.4462    2.1941   49.4791 C.3     1  ZINC001004075025    0.1300
     15 N15        -5.0920    2.6406   49.1427 N.am    1  ZINC001004075025   -0.7200
     16 C16        -4.0524    1.7918   49.2662 C.2     1  ZINC001004075025    0.6000
     17 O17        -4.2386    0.6549   49.6554 O.2     1  ZINC001004075025   -0.5300
     18 C18        -2.6897    2.2416   48.9293 C.2     1  ZINC001004075025   -0.2700
     19 C19        -1.7775    2.8839   49.7305 C.2     1  ZINC001004075025    0.0700
     20 C20        -1.9653    3.2860   51.1707 C.3     1  ZINC001004075025   -0.0300
     21 C21        -0.5992    3.4042   51.8495 C.3     1  ZINC001004075025   -0.1500
     22 C22        -2.6845    4.6350   51.2340 C.3     1  ZINC001004075025   -0.1500
     23 O23        -0.6915    3.0813   48.9797 O.3     1  ZINC001004075025    0.1000
     24 N24        -0.8086    2.6588   47.8556 N.2     1  ZINC001004075025   -0.3500
     25 C25        -1.9687    2.1077   47.6541 C.2     1  ZINC001004075025    0.0200
     26 C26        -8.1861    2.2081   51.3758 C.3     1  ZINC001004075025    0.1100
     27 O27        -7.7219    1.2257   56.2276 O.3     1  ZINC001004075025   -0.3400
     28 H28        -8.6554   -0.0692   59.8186 H       1  ZINC001004075025    0.0600
     29 H29        -9.6080    1.1807   58.9827 H       1  ZINC001004075025    0.0500
     30 H30        -8.9240   -0.1808   58.0625 H       1  ZINC001004075025    0.0600
     31 H31        -7.3191    1.9925   59.4832 H       1  ZINC001004075025    0.0800
     32 H32        -6.6351    0.6310   58.5630 H       1  ZINC001004075025    0.0700
     33 H33        -6.4227    3.9238   57.6086 H       1  ZINC001004075025    0.0900
     34 H34        -5.4599    2.4212   57.3996 H       1  ZINC001004075025    0.0900
     35 H35        -7.0700    3.9687   55.2898 H       1  ZINC001004075025    0.0800
     36 H36        -5.4240    3.2665   55.1428 H       1  ZINC001004075025    0.0900
     37 H37        -5.4431    2.2566   52.5494 H       1  ZINC001004075025    0.0900
     38 H38        -6.1129    0.7830   51.7272 H       1  ZINC001004075025    0.0900
     39 H39        -6.6372    3.7623   51.0126 H       1  ZINC001004075025    0.1100
     40 H40        -6.4843    1.1049   49.4622 H       1  ZINC001004075025    0.0800
     41 H41        -7.1519    2.5937   48.7509 H       1  ZINC001004075025    0.0800
     42 H42        -4.9436    3.5472   48.8310 H       1  ZINC001004075025    0.4000
     43 H43        -2.5619    2.5318   51.6837 H       1  ZINC001004075025    0.1300
     44 H44        -0.0026    4.1584   51.3366 H       1  ZINC001004075025    0.0600
     45 H45        -0.7350    3.6950   52.8912 H       1  ZINC001004075025    0.0700
     46 H46        -0.0868    2.4432   51.8045 H       1  ZINC001004075025    0.0600
     47 H47        -2.0879    5.3893   50.7210 H       1  ZINC001004075025    0.0600
     48 H48        -3.6578    4.5508   50.7504 H       1  ZINC001004075025    0.0600
     49 H49        -2.8204    4.9258   52.2757 H       1  ZINC001004075025    0.0700
     50 H50        -2.3289    1.6541   46.7425 H       1  ZINC001004075025    0.2000
     51 H51        -8.5118    1.2778   50.9104 H       1  ZINC001004075025    0.0900
     52 H52        -8.9547    2.9807   51.3579 H       1  ZINC001004075025    0.0800
@<TRIPOS>BOND
     1     1     2    1
     2     1    28    1
     3     1    29    1
     4     1    30    1
     5     2     3    1
     6     2    31    1
     7     2    32    1
     8     3     4    1
     9     3    27    1
    10     3     5    1
    11     5     6    1
    12     5    33    1
    13     5    34    1
    14     6     7    1
    15     6    35    1
    16     6    36    1
    17     7     8    1
    18     7     9    1
    19     7    27    1
    20     9    10    2
    21     9    11   am
    22    11    26    1
    23    11    12    1
    24    12    13    1
    25    12    37    1
    26    12    38    1
    27    13    14    1
    28    13    26    1
    29    13    39    1
    30    14    15    1
    31    14    40    1
    32    14    41    1
    33    15    16   am
    34    15    42    1
    35    16    17    2
    36    16    18    1
    37    18    25    1
    38    18    19    2
    39    19    20    1
    40    19    23    1
    41    20    21    1
    42    20    22    1
    43    20    43    1
    44    21    44    1
    45    21    45    1
    46    21    46    1
    47    22    47    1
    48    22    48    1
    49    22    49    1
    50    23    24    1
    51    24    25    2
    52    25    50    1
    53    26    51    1
    54    26    52    1
@<TRIPOS>SUBSTRUCTURE
     1 ZINC001004075025        1 TEMP              0 ****  ****    0 ROOT


##########                                Name:    ZINC000461678839
##########                DOCK_Rotatable_Bonds:                   6
##########                         Heavy_Atoms:                  28
##########                    Molecular_Weight:             404.939
##########                DOCK_Rotatable_Bonds:                   6
##########                       Formal_Charge:          -0.0200003
##########                     HBond_Acceptors:                   7
##########                        HBond_Donors:                   0
##########                         Heavy_Atoms:                  28
##########                          Grid_Score:          -33.064991
##########                     Grid_vdw_energy:          -32.331921
##########                      Grid_es_energy:           -0.733072
##########           Internal_energy_repulsive:            6.932135

@<TRIPOS>MOLECULE
ZINC000461678839
 57 60 1 0 0
SMALL
USER_CHARGES


@<TRIPOS>ATOM
      1 C1         -8.5151    2.9009   51.9458 C.3     1  ZINC000461678839   -0.1500
      2 C2         -7.4705    2.4836   50.9087 C.3     1  ZINC000461678839   -0.0900
      3 H3         -7.9557    2.3775   49.9385 H       1  ZINC000461678839    0.0700
      4 C4         -6.8661    1.1227   51.3216 C.3     1  ZINC000461678839   -0.1100
      5 C5         -6.1879    0.5086   50.1260 C.3     1  ZINC000461678839   -0.1200
      6 C6         -4.6961    0.8749   50.0288 C.3     1  ZINC000461678839    0.0600
      7 N7         -4.4206    2.2962   50.3337 N.3     1  ZINC000461678839   -0.4600
      8 C8         -3.1275    2.6400   49.9729 C.2     1  ZINC000461678839    0.3700
      9 N9         -2.6808    2.8235   48.7528 N.2     1  ZINC000461678839   -0.3100
     10 N10        -1.4338    3.1333   48.7864 N.2     1  ZINC000461678839   -0.2500
     11 C11        -1.0145    3.1653   50.0195 C.2     1  ZINC000461678839    0.1700
     12 C12         0.3839    3.4885   50.4794 C.3     1  ZINC000461678839    0.1500
     13 O13         1.3236    3.0283   49.5061 O.3     1  ZINC000461678839   -0.3100
     14 C14         2.1576    2.0227   49.8810 C.ar    1  ZINC000461678839    0.1400
     15 C15         3.0817    2.2285   50.8949 C.ar    1  ZINC000461678839   -0.2000
     16 C16         3.9287    1.2052   51.2744 C.ar    1  ZINC000461678839   -0.0700
     17 C17         3.8559   -0.0241   50.6437 C.ar    1  ZINC000461678839   -0.0700
     18 Cl18        4.9217   -1.3083   51.1219 Cl      1  ZINC000461678839   -0.0700
     19 C19         2.9346   -0.2315   49.6324 C.ar    1  ZINC000461678839   -0.0700
     20 C20         2.0821    0.7876   49.2540 C.ar    1  ZINC000461678839   -0.1400
     21 N21        -2.0798    2.8573   50.8196 N.pl3   1  ZINC000461678839   -0.4600
     22 C22        -2.0916    2.7701   52.2819 C.3     1  ZINC000461678839    0.1200
     23 C23        -2.0065    4.1768   52.8775 C.3     1  ZINC000461678839   -0.1400
     24 H24        -1.5178    4.8566   52.1794 H       1  ZINC000461678839    0.0900
     25 C25        -1.2484    4.1490   54.2269 C.3     1  ZINC000461678839   -0.1500
     26 C26        -2.0804    5.1340   55.0871 C.3     1  ZINC000461678839    0.0500
     27 O27        -3.4390    4.8817   54.6687 O.3     1  ZINC000461678839   -0.3700
     28 C28        -3.4116    4.6948   53.2407 C.3     1  ZINC000461678839    0.0400
     29 C29        -5.3784    3.2083   49.7564 C.3     1  ZINC000461678839    0.0700
     30 C30        -6.4483    3.5204   50.8189 C.3     1  ZINC000461678839   -0.1100
     31 H31        -8.9595    3.8517   51.6515 H       1  ZINC000461678839    0.0500
     32 H32        -9.2926    2.1393   52.0052 H       1  ZINC000461678839    0.0500
     33 H33        -8.0372    3.0091   52.9196 H       1  ZINC000461678839    0.0600
     34 H34        -6.1369    1.2734   52.1176 H       1  ZINC000461678839    0.0700
     35 H35        -7.6592    0.4617   51.6708 H       1  ZINC000461678839    0.0700
     36 H36        -6.2798   -0.5757   50.1888 H       1  ZINC000461678839    0.0800
     37 H37        -6.6928    0.8498   49.2223 H       1  ZINC000461678839    0.0700
     38 H38        -4.1369    0.2527   50.7276 H       1  ZINC000461678839    0.0700
     39 H39        -4.3485    0.6605   49.0182 H       1  ZINC000461678839    0.0500
     40 H40         0.4860    4.5667   50.6017 H       1  ZINC000461678839    0.0800
     41 H41         0.5761    2.9948   51.4320 H       1  ZINC000461678839    0.1000
     42 H42         3.1393    3.1881   51.3870 H       1  ZINC000461678839    0.1400
     43 H43         4.6483    1.3650   52.0638 H       1  ZINC000461678839    0.1400
     44 H44         2.8790   -1.1918   49.1414 H       1  ZINC000461678839    0.1400
     45 H45         1.3630    0.6254   48.4646 H       1  ZINC000461678839    0.1400
     46 H46        -3.0146    2.2919   52.6100 H       1  ZINC000461678839    0.1100
     47 H47        -1.2381    2.1811   52.6177 H       1  ZINC000461678839    0.1000
     48 H48        -1.2608    3.1486   54.6595 H       1  ZINC000461678839    0.0800
     49 H49        -0.2258    4.5063   54.1061 H       1  ZINC000461678839    0.0900
     50 H50        -1.9584    4.9147   56.1478 H       1  ZINC000461678839    0.1000
     51 H51        -1.7977    6.1645   54.8721 H       1  ZINC000461678839    0.0600
     52 H52        -3.6012    5.6437   52.7389 H       1  ZINC000461678839    0.0500
     53 H53        -4.1635    3.9618   52.9482 H       1  ZINC000461678839    0.1100
     54 H54        -4.8761    4.1287   49.4589 H       1  ZINC000461678839    0.0900
     55 H55        -5.8467    2.7472   48.8868 H       1  ZINC000461678839    0.0600
     56 H56        -6.9290    4.4658   50.5674 H       1  ZINC000461678839    0.0700
     57 H57        -5.9619    3.6223   51.7890 H       1  ZINC000461678839    0.0700
@<TRIPOS>BOND
     1     1     2    1
     2     1    31    1
     3     1    32    1
     4     1    33    1
     5     2     3    1
     6     2    30    1
     7     2     4    1
     8     4     5    1
     9     4    34    1
    10     4    35    1
    11     5     6    1
    12     5    36    1
    13     5    37    1
    14     6     7    1
    15     6    38    1
    16     6    39    1
    17     7     8    1
    18     7    29    1
    19     8    21    1
    20     8     9    2
    21     9    10    1
    22    10    11    2
    23    11    12    1
    24    11    21    1
    25    12    13    1
    26    12    40    1
    27    12    41    1
    28    13    14    1
    29    14    20   ar
    30    14    15   ar
    31    15    16   ar
    32    15    42    1
    33    16    17   ar
    34    16    43    1
    35    17    18    1
    36    17    19   ar
    37    19    20   ar
    38    19    44    1
    39    20    45    1
    40    21    22    1
    41    22    23    1
    42    22    46    1
    43    22    47    1
    44    23    24    1
    45    23    28    1
    46    23    25    1
    47    25    26    1
    48    25    48    1
    49    25    49    1
    50    26    27    1
    51    26    50    1
    52    26    51    1
    53    27    28    1
    54    28    52    1
    55    28    53    1
    56    29    30    1
    57    29    54    1
    58    29    55    1
    59    30    56    1
    60    30    57    1
@<TRIPOS>SUBSTRUCTURE
     1 ZINC000461678839        1 TEMP              0 ****  ****    0 ROOT


##########                                Name:    ZINC001386869844
##########                DOCK_Rotatable_Bonds:                   9
##########                         Heavy_Atoms:                  25
##########                    Molecular_Weight:             345.485
##########                DOCK_Rotatable_Bonds:                   9
##########                       Formal_Charge:          -0.0300003
##########                     HBond_Acceptors:                   5
##########                        HBond_Donors:                   2
##########                         Heavy_Atoms:                  25
##########                          Grid_Score:          -33.061005
##########                     Grid_vdw_energy:          -31.390844
##########                      Grid_es_energy:           -1.670160
##########           Internal_energy_repulsive:           28.590879

@<TRIPOS>MOLECULE
ZINC001386869844
 56 58 1 0 0
SMALL
USER_CHARGES


@<TRIPOS>ATOM
      1 C1         -8.3448    2.4973   51.6587 C.3     1  ZINC001386869844    0.0600
      2 N2         -8.2767    1.0484   51.8648 N.am    1  ZINC001386869844   -0.6200
      3 C3         -9.4704    0.3120   52.2878 C.3     1  ZINC001386869844    0.1100
      4 C4         -9.4548    0.1457   53.8087 C.3     1  ZINC001386869844    0.1000
      5 N5        -10.6216   -0.6354   54.2265 N.am    1  ZINC001386869844   -0.7300
      6 C6        -11.0958   -0.5190   55.4828 C.2     1  ZINC001386869844    0.5200
      7 O7        -10.5533    0.2286   56.2688 O.2     1  ZINC001386869844   -0.5300
      8 C8        -12.2961   -1.3225   55.9126 C.3     1  ZINC001386869844   -0.1300
      9 C9        -11.9787   -2.0546   57.2180 C.3     1  ZINC001386869844   -0.0100
     10 C10       -13.1106   -3.0312   57.5432 C.3     1  ZINC001386869844   -0.1500
     11 C11       -10.6670   -2.8270   57.0637 C.3     1  ZINC001386869844   -0.1600
     12 C12       -11.8410   -1.0374   58.3526 C.3     1  ZINC001386869844   -0.1500
     13 C13       -10.4778   -0.9236   59.0379 C.3     1  ZINC001386869844   -0.1900
     14 C14       -11.6502   -1.5815   59.7699 C.3     1  ZINC001386869844   -0.1800
     15 C15        -7.1160    0.3931   51.6653 C.2     1  ZINC001386869844    0.5900
     16 O16        -7.0595   -0.8103   51.8366 O.2     1  ZINC001386869844   -0.5200
     17 C17        -5.9210    1.1306   51.2416 C.2     1  ZINC001386869844   -0.0600
     18 C18        -5.4264    1.2120   49.9553 C.2     1  ZINC001386869844   -0.0900
     19 C19        -4.2852    2.0082   50.0080 C.2     1  ZINC001386869844   -0.1700
     20 C20        -4.1004    2.3939   51.2986 C.2     1  ZINC001386869844    0.0500
     21 C21        -2.9583    3.2677   51.7600 C.3     1  ZINC001386869844   -0.0600
     22 C22        -1.8812    3.2729   50.6689 C.3     1  ZINC001386869844   -0.1100
     23 C23        -2.5244    3.5916   49.3165 C.3     1  ZINC001386869844   -0.1200
     24 C24        -3.3823    2.4030   48.8661 C.3     1  ZINC001386869844   -0.0500
     25 N25        -5.0918    1.8727   52.0543 N.pl3   1  ZINC001386869844   -0.5400
     26 H26        -7.9995    3.0087   52.5571 H       1  ZINC001386869844    0.0600
     27 H27        -7.7108    2.7745   50.8164 H       1  ZINC001386869844    0.0800
     28 H28        -9.3745    2.7865   51.4489 H       1  ZINC001386869844    0.0900
     29 H29        -9.4779   -0.6702   51.8151 H       1  ZINC001386869844    0.1000
     30 H30       -10.3621    0.8645   51.9918 H       1  ZINC001386869844    0.0900
     31 H31        -9.4863    1.1272   54.2817 H       1  ZINC001386869844    0.0700
     32 H32        -8.5441   -0.3729   54.1081 H       1  ZINC001386869844    0.0700
     33 H33       -11.0529   -1.2364   53.5991 H       1  ZINC001386869844    0.4000
     34 H34       -13.1437   -0.6549   56.0672 H       1  ZINC001386869844    0.0900
     35 H35       -12.5426   -2.0496   55.1390 H       1  ZINC001386869844    0.0900
     36 H36       -13.2086   -3.7559   56.7349 H       1  ZINC001386869844    0.0800
     37 H37       -12.8844   -3.5528   58.4733 H       1  ZINC001386869844    0.0500
     38 H38       -14.0451   -2.4809   57.6532 H       1  ZINC001386869844    0.0500
     39 H39        -9.8607   -2.1312   56.8321 H       1  ZINC001386869844    0.0500
     40 H40       -10.4409   -3.3485   57.9938 H       1  ZINC001386869844    0.0500
     41 H41       -10.7651   -3.5516   56.2554 H       1  ZINC001386869844    0.0800
     42 H42       -12.4248   -0.1240   58.2387 H       1  ZINC001386869844    0.1000
     43 H43        -9.6790   -1.5734   58.6805 H       1  ZINC001386869844    0.1000
     44 H44       -10.1649    0.0647   59.3749 H       1  ZINC001386869844    0.0900
     45 H45       -12.1081   -1.0258   60.5883 H       1  ZINC001386869844    0.0900
     46 H46       -11.6228   -2.6640   59.8939 H       1  ZINC001386869844    0.0900
     47 H47        -5.8449    0.7463   49.0752 H       1  ZINC001386869844    0.1500
     48 H48        -3.3172    4.2834   51.9263 H       1  ZINC001386869844    0.0800
     49 H49        -2.5417    2.8690   52.6851 H       1  ZINC001386869844    0.0800
     50 H50        -1.1318    4.0293   50.9020 H       1  ZINC001386869844    0.0700
     51 H51        -1.4059    2.2931   50.6231 H       1  ZINC001386869844    0.0700
     52 H52        -3.1524    4.4774   49.4126 H       1  ZINC001386869844    0.0600
     53 H53        -1.7445    3.7775   48.5781 H       1  ZINC001386869844    0.0700
     54 H54        -2.7380    1.5649   48.6008 H       1  ZINC001386869844    0.0700
     55 H55        -3.9847    2.6907   48.0043 H       1  ZINC001386869844    0.0700
     56 H56        -5.2004    1.9982   53.0100 H       1  ZINC001386869844    0.4200
@<TRIPOS>BOND
     1     1     2    1
     2     1    26    1
     3     1    27    1
     4     1    28    1
     5     2     3    1
     6     2    15   am
     7     3     4    1
     8     3    29    1
     9     3    30    1
    10     4     5    1
    11     4    31    1
    12     4    32    1
    13     5     6   am
    14     5    33    1
    15     6     7    2
    16     6     8    1
    17     8     9    1
    18     8    34    1
    19     8    35    1
    20     9    10    1
    21     9    11    1
    22     9    12    1
    23    10    36    1
    24    10    37    1
    25    10    38    1
    26    11    39    1
    27    11    40    1
    28    11    41    1
    29    12    14    1
    30    12    13    1
    31    12    42    1
    32    13    14    1
    33    13    43    1
    34    13    44    1
    35    14    45    1
    36    14    46    1
    37    15    16    2
    38    15    17    1
    39    17    25    1
    40    17    18    2
    41    18    19    1
    42    18    47    1
    43    19    24    1
    44    19    20    2
    45    20    21    1
    46    20    25    1
    47    21    22    1
    48    21    48    1
    49    21    49    1
    50    22    23    1
    51    22    50    1
    52    22    51    1
    53    23    24    1
    54    23    52    1
    55    23    53    1
    56    24    54    1
    57    24    55    1
    58    25    56    1
@<TRIPOS>SUBSTRUCTURE
     1 ZINC001386869844        1 TEMP              0 ****  ****    0 ROOT


##########                                Name:    ZINC000540473851
##########                DOCK_Rotatable_Bonds:                   5
##########                         Heavy_Atoms:                  29
##########                    Molecular_Weight:             411.503
##########                DOCK_Rotatable_Bonds:                   5
##########                       Formal_Charge:           0.0200001
##########                     HBond_Acceptors:                   8
##########                        HBond_Donors:                   0
##########                         Heavy_Atoms:                  29
##########                          Grid_Score:          -33.054230
##########                     Grid_vdw_energy:          -32.279655
##########                      Grid_es_energy:           -0.774575
##########           Internal_energy_repulsive:           25.478285

@<TRIPOS>MOLECULE
ZINC000540473851
 51 54 1 0 0
SMALL
USER_CHARGES


@<TRIPOS>ATOM
      1 C1         -9.6318   -0.2145   53.4598 C.3     1  ZINC000540473851   -0.0800
      2 C2         -9.1700    0.6564   54.5997 C.2     1  ZINC000540473851    0.1500
      3 C3         -8.8164    1.9698   54.4388 C.2     1  ZINC000540473851   -0.3100
      4 C4         -8.8274    2.7211   53.1777 C.2     1  ZINC000540473851    0.6000
      5 O5         -9.8720    3.1740   52.7487 O.2     1  ZINC000540473851   -0.5100
      6 N6         -7.6806    2.9090   52.4953 N.am    1  ZINC000540473851   -0.6100
      7 C7         -6.4081    2.3649   52.9930 C.3     1  ZINC000540473851    0.1000
      8 C8         -5.7400    1.5766   51.8615 C.3     1  ZINC000540473851    0.0400
      9 N9         -5.6269    2.4326   50.6730 N.3     1  ZINC000540473851   -0.5300
     10 C10        -4.8393    1.7737   49.6226 C.3     1  ZINC000540473851    0.1200
     11 H11        -5.2344    2.0498   48.6449 H       1  ZINC000540473851    0.0500
     12 C12        -4.9248    0.2561   49.7972 C.3     1  ZINC000540473851   -0.1400
     13 C13        -3.4007    2.2108   49.7246 C.ar    1  ZINC000540473851   -0.0500
     14 C14        -2.5489    2.0402   48.6495 C.ar    1  ZINC000540473851   -0.1000
     15 C15        -1.2288    2.4407   48.7416 C.ar    1  ZINC000540473851   -0.0900
     16 C16        -0.7594    3.0120   49.9090 C.ar    1  ZINC000540473851   -0.1500
     17 C17        -1.6120    3.1838   50.9866 C.ar    1  ZINC000540473851    0.1000
     18 F18        -1.1541    3.7423   52.1284 F       1  ZINC000540473851   -0.1400
     19 C19        -2.9349    2.7873   50.8914 C.ar    1  ZINC000540473851   -0.1500
     20 C20        -6.9507    2.8244   50.1707 C.3     1  ZINC000540473851    0.0400
     21 C21        -7.6694    3.6587   51.2298 C.3     1  ZINC000540473851    0.1200
     22 S22        -8.3460    2.5959   56.0173 S.3     1  ZINC000540473851    0.2800
     23 C23        -8.6605    1.0735   56.7280 C.2     1  ZINC000540473851    0.0800
     24 C24        -8.4901    0.7620   58.1643 C.ar    1  ZINC000540473851    0.3800
     25 N25        -8.6091   -0.4947   58.5732 N.ar    1  ZINC000540473851   -0.5100
     26 C26        -8.4629   -0.8065   59.8488 C.ar    1  ZINC000540473851    0.1600
     27 C27        -8.1818    0.1984   60.7635 C.ar    1  ZINC000540473851   -0.2100
     28 C28        -8.0638    1.5017   60.3021 C.ar    1  ZINC000540473851    0.1500
     29 N29        -8.2165    1.7452   59.0124 N.ar    1  ZINC000540473851   -0.4700
     30 N30        -9.0770    0.2276   55.8292 N.2     1  ZINC000540473851   -0.4300
     31 H31       -10.7144   -0.1373   53.3590 H       1  ZINC000540473851    0.0900
     32 H32        -9.1565    0.1144   52.5356 H       1  ZINC000540473851    0.0800
     33 H33        -9.3584   -1.2505   53.6602 H       1  ZINC000540473851    0.0800
     34 H34        -5.7570    3.1820   53.3039 H       1  ZINC000540473851    0.0900
     35 H35        -6.5983    1.7029   53.8377 H       1  ZINC000540473851    0.0900
     36 H36        -4.7460    1.2592   52.1769 H       1  ZINC000540473851    0.1000
     37 H37        -6.3433    0.7007   51.6229 H       1  ZINC000540473851    0.0400
     38 H38        -4.5297   -0.0200   50.7748 H       1  ZINC000540473851    0.0700
     39 H39        -5.9654   -0.0600   49.7234 H       1  ZINC000540473851    0.0600
     40 H40        -4.3404   -0.2329   49.0178 H       1  ZINC000540473851    0.0600
     41 H41        -2.9148    1.5934   47.7368 H       1  ZINC000540473851    0.1400
     42 H42        -0.5640    2.3066   47.9010 H       1  ZINC000540473851    0.1300
     43 H43         0.2720    3.3241   49.9809 H       1  ZINC000540473851    0.1300
     44 H44        -3.6008    2.9211   51.7310 H       1  ZINC000540473851    0.1300
     45 H45        -6.8348    3.4120   49.2600 H       1  ZINC000540473851    0.1000
     46 H46        -7.5372    1.9312   49.9557 H       1  ZINC000540473851    0.0400
     47 H47        -8.6926    3.8546   50.9094 H       1  ZINC000540473851    0.1000
     48 H48        -7.1411    4.6011   51.3742 H       1  ZINC000540473851    0.0800
     49 H49        -8.5613   -1.8311   60.1758 H       1  ZINC000540473851    0.1800
     50 H50        -8.0578   -0.0289   61.8120 H       1  ZINC000540473851    0.1600
     51 H51        -7.8457    2.3066   60.9881 H       1  ZINC000540473851    0.1800
@<TRIPOS>BOND
     1     1     2    1
     2     1    31    1
     3     1    32    1
     4     1    33    1
     5     2    30    1
     6     2     3    2
     7     3     4    1
     8     3    22    1
     9     4     5    2
    10     4     6   am
    11     6    21    1
    12     6     7    1
    13     7     8    1
    14     7    34    1
    15     7    35    1
    16     8     9    1
    17     8    36    1
    18     8    37    1
    19     9    10    1
    20     9    20    1
    21    10    11    1
    22    10    12    1
    23    10    13    1
    24    12    38    1
    25    12    39    1
    26    12    40    1
    27    13    19   ar
    28    13    14   ar
    29    14    15   ar
    30    14    41    1
    31    15    16   ar
    32    15    42    1
    33    16    17   ar
    34    16    43    1
    35    17    18    1
    36    17    19   ar
    37    19    44    1
    38    20    21    1
    39    20    45    1
    40    20    46    1
    41    21    47    1
    42    21    48    1
    43    22    23    1
    44    23    24    1
    45    23    30    2
    46    24    29   ar
    47    24    25   ar
    48    25    26   ar
    49    26    27   ar
    50    26    49    1
    51    27    28   ar
    52    27    50    1
    53    28    29   ar
    54    28    51    1
@<TRIPOS>SUBSTRUCTURE
     1 ZINC000540473851        1 TEMP              0 ****  ****    0 ROOT


##########                                Name:    ZINC001296589646
##########                DOCK_Rotatable_Bonds:                   8
##########                         Heavy_Atoms:                  29
##########                    Molecular_Weight:             398.548
##########                DOCK_Rotatable_Bonds:                   8
##########                       Formal_Charge:          -0.0200008
##########                     HBond_Acceptors:                   6
##########                        HBond_Donors:                   0
##########                         Heavy_Atoms:                  29
##########                          Grid_Score:          -33.043617
##########                     Grid_vdw_energy:          -32.150295
##########                      Grid_es_energy:           -0.893323
##########           Internal_energy_repulsive:           30.328094

@<TRIPOS>MOLECULE
ZINC001296589646
 63 66 1 0 0
SMALL
USER_CHARGES


@<TRIPOS>ATOM
      1 C1          2.0811    5.9380   49.2360 C.3     1  ZINC001296589646   -0.1500
      2 C2          0.9152    4.9641   49.4181 C.3     1  ZINC001296589646    0.0500
      3 O3          1.2715    3.9690   50.3798 O.3     1  ZINC001296589646   -0.3600
      4 C4          0.9530    2.6344   49.9805 C.3     1  ZINC001296589646    0.1800
      5 C5         -0.5233    2.4955   49.7115 C.2     1  ZINC001296589646    0.1500
      6 N6         -1.0716    2.1072   48.5952 N.2     1  ZINC001296589646   -0.2600
      7 N7         -2.3516    2.1024   48.7113 N.2     1  ZINC001296589646   -0.3200
      8 C8         -2.6913    2.4905   49.9178 C.2     1  ZINC001296589646    0.3600
      9 N9         -3.9804    2.6109   50.4121 N.3     1  ZINC001296589646   -0.4300
     10 C10        -4.8240    3.4306   49.5052 C.3     1  ZINC001296589646    0.0300
     11 C11        -6.2664    3.0266   49.9011 C.3     1  ZINC001296589646   -0.1200
     12 C12        -6.1349    1.5135   50.1894 C.3     1  ZINC001296589646   -0.1000
     13 H13        -6.4330    0.9345   49.3155 H       1  ZINC001296589646    0.0800
     14 C14        -6.9893    1.1270   51.3983 C.3     1  ZINC001296589646   -0.1400
     15 C15        -4.6419    1.2905   50.4944 C.3     1  ZINC001296589646    0.0500
     16 N16        -1.5353    2.7478   50.5957 N.pl3   1  ZINC001296589646   -0.4600
     17 C17        -1.4058    3.2085   51.9803 C.3     1  ZINC001296589646    0.1000
     18 C18        -1.8884    4.6567   52.0833 C.3     1  ZINC001296589646   -0.1300
     19 C19        -2.3646    4.9353   53.5103 C.3     1  ZINC001296589646   -0.0500
     20 H20        -2.4156    6.0119   53.6726 H       1  ZINC001296589646    0.0800
     21 C21        -3.7516    4.3225   53.7139 C.3     1  ZINC001296589646   -0.1500
     22 C22        -1.3968    4.3248   54.4910 C.ar    1  ZINC001296589646   -0.0800
     23 C23        -0.0472    4.6098   54.3987 C.ar    1  ZINC001296589646   -0.1100
     24 C24         0.8405    4.0498   55.2982 C.ar    1  ZINC001296589646   -0.1200
     25 C25         0.3788    3.2052   56.2902 C.ar    1  ZINC001296589646   -0.1200
     26 C26        -0.9708    2.9209   56.3831 C.ar    1  ZINC001296589646   -0.1200
     27 C27        -1.8592    3.4843   55.4862 C.ar    1  ZINC001296589646   -0.1200
     28 C28         1.4234    1.6105   51.0493 C.3     1  ZINC001296589646   -0.1400
     29 C29         2.9072    1.4231   50.6443 C.3     1  ZINC001296589646    0.0600
     30 O30         2.9144    1.4813   49.2090 O.3     1  ZINC001296589646   -0.3700
     31 C31         1.7783    2.2192   48.7436 C.3     1  ZINC001296589646    0.0400
     32 H32         2.2490    6.4816   50.1657 H       1  ZINC001296589646    0.0600
     33 H33         2.9810    5.3821   48.9725 H       1  ZINC001296589646    0.0700
     34 H34         1.8440    6.6439   48.4401 H       1  ZINC001296589646    0.0700
     35 H35         0.0379    5.5088   49.7670 H       1  ZINC001296589646    0.0500
     36 H36         0.6900    4.4846   48.4655 H       1  ZINC001296589646    0.0600
     37 H37        -4.6596    4.4934   49.6829 H       1  ZINC001296589646    0.0900
     38 H38        -4.6261    3.1786   48.4634 H       1  ZINC001296589646    0.0600
     39 H39        -6.5858    3.5632   50.7944 H       1  ZINC001296589646    0.0800
     40 H40        -6.9566    3.2035   49.0761 H       1  ZINC001296589646    0.0800
     41 H41        -8.0374    1.3368   51.1844 H       1  ZINC001296589646    0.0600
     42 H42        -6.8665    0.0639   51.6051 H       1  ZINC001296589646    0.0600
     43 H43        -6.6730    1.7051   52.2666 H       1  ZINC001296589646    0.0600
     44 H44        -4.2099    0.6123   49.7586 H       1  ZINC001296589646    0.0800
     45 H45        -4.5251    0.8785   51.4967 H       1  ZINC001296589646    0.0900
     46 H46        -2.0101    2.5769   52.6315 H       1  ZINC001296589646    0.1100
     47 H47        -0.3610    3.1511   52.2861 H       1  ZINC001296589646    0.1000
     48 H48        -1.0688    5.3313   51.8355 H       1  ZINC001296589646    0.0800
     49 H49        -2.7124    4.8153   51.3876 H       1  ZINC001296589646    0.0700
     50 H50        -4.0909    4.5209   54.7305 H       1  ZINC001296589646    0.0600
     51 H51        -4.4515    4.7641   53.0046 H       1  ZINC001296589646    0.0600
     52 H52        -3.7006    3.2459   53.5516 H       1  ZINC001296589646    0.0600
     53 H53         0.3135    5.2699   53.6236 H       1  ZINC001296589646    0.1200
     54 H54         1.8949    4.2720   55.2257 H       1  ZINC001296589646    0.1200
     55 H55         1.0725    2.7671   56.9925 H       1  ZINC001296589646    0.1200
     56 H56        -1.3315    2.2607   57.1579 H       1  ZINC001296589646    0.1200
     57 H57        -2.9136    3.2621   55.5587 H       1  ZINC001296589646    0.1200
     58 H58         1.3398    2.0250   52.0540 H       1  ZINC001296589646    0.1000
     59 H59         0.8720    0.6740   50.9658 H       1  ZINC001296589646    0.1000
     60 H60         3.5168    2.2262   51.0586 H       1  ZINC001296589646    0.0700
     61 H61         3.2731    0.4548   50.9855 H       1  ZINC001296589646    0.0900
     62 H62         1.1732    1.5922   48.0888 H       1  ZINC001296589646    0.1000
     63 H63         2.1095    3.1070   48.2050 H       1  ZINC001296589646    0.0800
@<TRIPOS>BOND
     1     1     2    1
     2     1    32    1
     3     1    33    1
     4     1    34    1
     5     2     3    1
     6     2    35    1
     7     2    36    1
     8     3     4    1
     9     4    31    1
    10     4     5    1
    11     4    28    1
    12     5    16    1
    13     5     6    2
    14     6     7    1
    15     7     8    2
    16     8     9    1
    17     8    16    1
    18     9    15    1
    19     9    10    1
    20    10    11    1
    21    10    37    1
    22    10    38    1
    23    11    12    1
    24    11    39    1
    25    11    40    1
    26    12    13    1
    27    12    14    1
    28    12    15    1
    29    14    41    1
    30    14    42    1
    31    14    43    1
    32    15    44    1
    33    15    45    1
    34    16    17    1
    35    17    18    1
    36    17    46    1
    37    17    47    1
    38    18    19    1
    39    18    48    1
    40    18    49    1
    41    19    20    1
    42    19    21    1
    43    19    22    1
    44    21    50    1
    45    21    51    1
    46    21    52    1
    47    22    27   ar
    48    22    23   ar
    49    23    24   ar
    50    23    53    1
    51    24    25   ar
    52    24    54    1
    53    25    26   ar
    54    25    55    1
    55    26    27   ar
    56    26    56    1
    57    27    57    1
    58    28    29    1
    59    28    58    1
    60    28    59    1
    61    29    30    1
    62    29    60    1
    63    29    61    1
    64    30    31    1
    65    31    62    1
    66    31    63    1
@<TRIPOS>SUBSTRUCTURE
     1 ZINC001296589646        1 TEMP              0 ****  ****    0 ROOT


##########                                Name:    ZINC000541252362
##########                DOCK_Rotatable_Bonds:                   5
##########                         Heavy_Atoms:                  27
##########                    Molecular_Weight:             401.254
##########                DOCK_Rotatable_Bonds:                   5
##########                       Formal_Charge:          -0.0199999
##########                     HBond_Acceptors:                   9
##########                        HBond_Donors:                   1
##########                         Heavy_Atoms:                  27
##########                          Grid_Score:          -33.035004
##########                     Grid_vdw_energy:          -32.792648
##########                      Grid_es_energy:           -0.242357
##########           Internal_energy_repulsive:            4.367244

@<TRIPOS>MOLECULE
ZINC000541252362
 41 44 1 0 0
SMALL
USER_CHARGES


@<TRIPOS>ATOM
      1 C1        -12.3577   -2.4440   58.2283 C.3     1  ZINC000541252362    0.1000
      2 N2        -11.6527   -1.8296   57.1005 N.pl3   1  ZINC000541252362   -0.3800
      3 C3        -11.9570   -1.9556   55.7962 C.2     1  ZINC000541252362    0.2600
      4 N4        -11.0956   -1.2573   55.1048 N.2     1  ZINC000541252362   -0.5300
      5 C5        -10.2217   -0.6680   55.9317 C.2     1  ZINC000541252362    0.2700
      6 C6         -9.0960    0.2070   55.5198 C.ar    1  ZINC000541252362    0.0000
      7 C7         -8.3329    0.8637   56.4833 C.ar    1  ZINC000541252362   -0.1000
      8 C8         -7.2856    1.6773   56.0986 C.ar    1  ZINC000541252362   -0.1000
      9 C9         -6.9906    1.8436   54.7590 C.ar    1  ZINC000541252362   -0.1300
     10 C10        -7.7462    1.1925   53.7914 C.ar    1  ZINC000541252362    0.1400
     11 N11        -7.4445    1.3633   52.4356 N.am    1  ZINC000541252362   -0.6800
     12 C12        -6.7302    0.4265   51.7809 C.2     1  ZINC000541252362    0.5100
     13 O13        -6.3486   -0.5645   52.3669 O.2     1  ZINC000541252362   -0.4900
     14 C14        -6.4053    0.6104   50.3209 C.3     1  ZINC000541252362   -0.0600
     15 C15        -5.1258    1.3950   50.1859 C.2     1  ZINC000541252362    0.0700
     16 C16        -4.6411    2.2745   51.0900 C.2     1  ZINC000541252362   -0.0700
     17 N17        -3.4665    2.7643   50.5879 N.pl3   1  ZINC000541252362   -0.3500
     18 C18        -2.5630    3.6694   51.0676 C.2     1  ZINC000541252362    0.0700
     19 C19        -1.4599    3.9836   50.3551 C.2     1  ZINC000541252362   -0.0500
     20 Cl20       -0.3244    5.1366   50.9835 Cl      1  ZINC000541252362   -0.0200
     21 C21        -1.2267    3.3807   49.1071 C.2     1  ZINC000541252362   -0.0900
     22 C22        -2.1191    2.4769   48.6180 C.2     1  ZINC000541252362    0.0200
     23 Cl23       -1.8475    1.7215   47.0786 Cl      1  ZINC000541252362   -0.0100
     24 C24        -3.2664    2.1601   49.3744 C.2     1  ZINC000541252362    0.2200
     25 N25        -4.2791    1.3327   49.1557 N.2     1  ZINC000541252362   -0.4300
     26 C26        -8.7959    0.3694   54.1699 C.ar    1  ZINC000541252362   -0.0800
     27 N27       -10.5301   -0.9886   57.1691 N.2     1  ZINC000541252362   -0.3100
     28 H28       -13.1497   -1.7769   58.5685 H       1  ZINC000541252362    0.0800
     29 H29       -12.7922   -3.3922   57.9119 H       1  ZINC000541252362    0.0900
     30 H30       -11.6557   -2.6199   59.0433 H       1  ZINC000541252362    0.0900
     31 H31       -12.7732   -2.5347   55.3902 H       1  ZINC000541252362    0.2200
     32 H32        -8.5611    0.7367   57.5313 H       1  ZINC000541252362    0.1300
     33 H33        -6.6955    2.1854   56.8470 H       1  ZINC000541252362    0.1300
     34 H34        -6.1709    2.4815   54.4631 H       1  ZINC000541252362    0.1300
     35 H35        -7.7497    2.1559   51.9670 H       1  ZINC000541252362    0.4100
     36 H36        -6.2847   -0.3652   49.8499 H       1  ZINC000541252362    0.1200
     37 H37        -7.2165    1.1514   49.8335 H       1  ZINC000541252362    0.1200
     38 H38        -5.0962    2.5415   52.0324 H       1  ZINC000541252362    0.1900
     39 H39        -2.7327    4.1384   52.0256 H       1  ZINC000541252362    0.1800
     40 H40        -0.3438    3.6337   48.5387 H       1  ZINC000541252362    0.1600
     41 H41        -9.3842   -0.1378   53.4196 H       1  ZINC000541252362    0.1500
@<TRIPOS>BOND
     1     1     2    1
     2     1    28    1
     3     1    29    1
     4     1    30    1
     5     2    27    1
     6     2     3    1
     7     3     4    2
     8     3    31    1
     9     4     5    1
    10     5     6    1
    11     5    27    2
    12     6    26   ar
    13     6     7   ar
    14     7     8   ar
    15     7    32    1
    16     8     9   ar
    17     8    33    1
    18     9    10   ar
    19     9    34    1
    20    10    11    1
    21    10    26   ar
    22    11    12   am
    23    11    35    1
    24    12    13    2
    25    12    14    1
    26    14    15    1
    27    14    36    1
    28    14    37    1
    29    15    25    1
    30    15    16    2
    31    16    17    1
    32    16    38    1
    33    17    24    1
    34    17    18    1
    35    18    19    2
    36    18    39    1
    37    19    20    1
    38    19    21    1
    39    21    22    2
    40    21    40    1
    41    22    23    1
    42    22    24    1
    43    24    25    2
    44    26    41    1
@<TRIPOS>SUBSTRUCTURE
     1 ZINC000541252362        1 TEMP              0 ****  ****    0 ROOT


##########                                Name:    ZINC000523878927
##########                DOCK_Rotatable_Bonds:                   8
##########                         Heavy_Atoms:                  27
##########                    Molecular_Weight:             376.474
##########                DOCK_Rotatable_Bonds:                   8
##########                       Formal_Charge:          0.00999957
##########                     HBond_Acceptors:                   7
##########                        HBond_Donors:                   3
##########                         Heavy_Atoms:                  27
##########                          Grid_Score:          -33.013927
##########                     Grid_vdw_energy:          -31.973770
##########                      Grid_es_energy:           -1.040159
##########           Internal_energy_repulsive:            9.258802

@<TRIPOS>MOLECULE
ZINC000523878927
 56 58 1 0 0
SMALL
USER_CHARGES


@<TRIPOS>ATOM
      1 C1        -11.3746    0.7028   55.7443 C.3     1  ZINC000523878927   -0.1500
      2 C2        -10.6456    1.7966   54.9614 C.3     1  ZINC000523878927   -0.0900
      3 H3        -10.2436    2.5341   55.6560 H       1  ZINC000523878927    0.0700
      4 C4        -11.6258    2.4783   54.0046 C.3     1  ZINC000523878927   -0.1200
      5 C5        -12.1901    1.4431   53.0296 C.3     1  ZINC000523878927   -0.1200
      6 C6        -11.0453    0.8199   52.2283 C.3     1  ZINC000523878927   -0.1100
      7 C7        -10.0651    0.1382   53.1851 C.3     1  ZINC000523878927   -0.1000
      8 H8        -10.5844   -0.6410   53.7428 H       1  ZINC000523878927    0.0800
      9 C9         -8.9203   -0.4848   52.3838 C.3     1  ZINC000523878927    0.1400
     10 N10        -8.2285    0.5612   51.6264 N.am    1  ZINC000523878927   -0.7400
     11 C11        -6.9419    0.3909   51.2629 C.2     1  ZINC000523878927    0.7200
     12 O12        -6.3550   -0.6303   51.5647 O.2     1  ZINC000523878927   -0.5800
     13 N13        -6.3060    1.3525   50.5648 N.am    1  ZINC000523878927   -0.6400
     14 C14        -6.8948    2.6339   50.1347 C.3     1  ZINC000523878927    0.1000
     15 C15        -5.6859    3.5863   49.9583 C.3     1  ZINC000523878927   -0.1400
     16 C16        -4.6145    2.6257   49.3781 C.3     1  ZINC000523878927    0.1500
     17 H17        -4.7414    2.5114   48.3017 H       1  ZINC000523878927    0.1100
     18 N18        -3.2656    3.1039   49.6913 N.am    1  ZINC000523878927   -0.7300
     19 C19        -2.1955    2.5380   49.0988 C.2     1  ZINC000523878927    0.7100
     20 O20        -2.3497    1.6315   48.3031 O.2     1  ZINC000523878927   -0.5700
     21 N21        -0.9544    2.9768   49.3881 N.am    1  ZINC000523878927   -0.6800
     22 C22         0.1576    2.3887   48.7724 C.ar    1  ZINC000523878927    0.1500
     23 C23         0.2535    2.3645   47.3875 C.ar    1  ZINC000523878927   -0.1200
     24 C24         1.3511    1.7845   46.7822 C.ar    1  ZINC000523878927   -0.1300
     25 C25         2.3552    1.2268   47.5556 C.ar    1  ZINC000523878927    0.0800
     26 F26         3.4279    0.6595   46.9617 F       1  ZINC000523878927   -0.1400
     27 C27         2.2617    1.2503   48.9369 C.ar    1  ZINC000523878927   -0.1300
     28 C28         1.1682    1.8341   49.5461 C.ar    1  ZINC000523878927   -0.0900
     29 C29        -4.9084    1.3001   50.1115 C.3     1  ZINC000523878927    0.1200
     30 C30        -9.5008    1.1734   54.1602 C.3     1  ZINC000523878927   -0.1100
     31 H31       -10.6764    0.2171   56.4260 H       1  ZINC000523878927    0.0500
     32 H32       -12.1902    1.1467   56.3151 H       1  ZINC000523878927    0.0500
     33 H33       -11.7766   -0.0347   55.0497 H       1  ZINC000523878927    0.0600
     34 H34       -12.4414    2.9222   54.5754 H       1  ZINC000523878927    0.0600
     35 H35       -11.1064    3.2576   53.4468 H       1  ZINC000523878927    0.0600
     36 H36       -12.7094    0.6638   53.5873 H       1  ZINC000523878927    0.0700
     37 H37       -12.8884    1.9288   52.3479 H       1  ZINC000523878927    0.0600
     38 H38       -11.4473    0.0824   51.5336 H       1  ZINC000523878927    0.0600
     39 H39       -10.5259    1.5992   51.6705 H       1  ZINC000523878927    0.0600
     40 H40        -8.2182   -0.9642   53.0659 H       1  ZINC000523878927    0.0700
     41 H41        -9.3216   -1.2276   51.6942 H       1  ZINC000523878927    0.0700
     42 H42        -8.6964    1.3763   51.3867 H       1  ZINC000523878927    0.3900
     43 H43        -7.4218    2.5105   49.1886 H       1  ZINC000523878927    0.0800
     44 H44        -7.5708    3.0164   50.8994 H       1  ZINC000523878927    0.0800
     45 H45        -5.9173    4.3849   49.2534 H       1  ZINC000523878927    0.1000
     46 H46        -5.3667    3.9943   50.9173 H       1  ZINC000523878927    0.0800
     47 H47        -3.1426    3.8278   50.3251 H       1  ZINC000523878927    0.4000
     48 H48        -0.8315    3.7000   50.0228 H       1  ZINC000523878927    0.4100
     49 H49        -0.5299    2.7988   46.7839 H       1  ZINC000523878927    0.1400
     50 H50         1.4261    1.7655   45.7050 H       1  ZINC000523878927    0.1400
     51 H51         3.0460    0.8148   49.5384 H       1  ZINC000523878927    0.1400
     52 H52         1.0958    1.8525   50.6235 H       1  ZINC000523878927    0.1500
     53 H53        -4.2401    1.1932   50.9660 H       1  ZINC000523878927    0.0700
     54 H54        -4.7768    0.4613   49.4281 H       1  ZINC000523878927    0.0800
     55 H55        -8.9814    1.9527   53.6023 H       1  ZINC000523878927    0.0700
     56 H56        -8.8025    0.6878   54.8418 H       1  ZINC000523878927    0.0700
@<TRIPOS>BOND
     1     1     2    1
     2     1    31    1
     3     1    32    1
     4     1    33    1
     5     2     3    1
     6     2    30    1
     7     2     4    1
     8     4     5    1
     9     4    34    1
    10     4    35    1
    11     5     6    1
    12     5    36    1
    13     5    37    1
    14     6     7    1
    15     6    38    1
    16     6    39    1
    17     7     8    1
    18     7     9    1
    19     7    30    1
    20     9    10    1
    21     9    40    1
    22     9    41    1
    23    10    11   am
    24    10    42    1
    25    11    12    2
    26    11    13   am
    27    13    29    1
    28    13    14    1
    29    14    15    1
    30    14    43    1
    31    14    44    1
    32    15    16    1
    33    15    45    1
    34    15    46    1
    35    16    17    1
    36    16    18    1
    37    16    29    1
    38    18    19   am
    39    18    47    1
    40    19    20    2
    41    19    21   am
    42    21    22    1
    43    21    48    1
    44    22    28   ar
    45    22    23   ar
    46    23    24   ar
    47    23    49    1
    48    24    25   ar
    49    24    50    1
    50    25    26    1
    51    25    27   ar
    52    27    28   ar
    53    27    51    1
    54    28    52    1
    55    29    53    1
    56    29    54    1
    57    30    55    1
    58    30    56    1
@<TRIPOS>SUBSTRUCTURE
     1 ZINC000523878927        1 TEMP              0 ****  ****    0 ROOT


##########                                Name:    ZINC000051488227
##########                DOCK_Rotatable_Bonds:                   8
##########                         Heavy_Atoms:                  30
##########                    Molecular_Weight:             403.478
##########                DOCK_Rotatable_Bonds:                   8
##########                       Formal_Charge:           0.0199996
##########                     HBond_Acceptors:                   5
##########                        HBond_Donors:                   0
##########                         Heavy_Atoms:                  30
##########                          Grid_Score:          -33.012142
##########                     Grid_vdw_energy:          -32.974403
##########                      Grid_es_energy:           -0.037739
##########           Internal_energy_repulsive:           23.256456

@<TRIPOS>MOLECULE
ZINC000051488227
 55 58 1 0 0
SMALL
USER_CHARGES


@<TRIPOS>ATOM
      1 O1         -5.5861    3.1252   53.2197 O.2     1  ZINC000051488227   -0.5000
      2 C2         -6.3321    2.3925   52.6141 C.2     1  ZINC000051488227    0.4800
      3 O3         -7.0314    1.4542   53.2716 O.3     1  ZINC000051488227   -0.3400
      4 C4         -7.2881    1.6902   54.6811 C.3     1  ZINC000051488227    0.1100
      5 C5         -8.4341    0.8232   55.1349 C.ar    1  ZINC000051488227   -0.1400
      6 C6         -9.3183    0.3061   54.2062 C.ar    1  ZINC000051488227   -0.0500
      7 C7        -10.3697   -0.4889   54.6197 C.ar    1  ZINC000051488227   -0.1500
      8 C8        -10.5376   -0.7687   55.9681 C.ar    1  ZINC000051488227    0.1500
      9 O9        -11.5709   -1.5510   56.3773 O.3     1  ZINC000051488227   -0.3100
     10 C10       -11.7144   -1.7521   57.7848 C.3     1  ZINC000051488227    0.1100
     11 C11       -12.9022   -2.6420   58.0465 C.ar    1  ZINC000051488227    0.1200
     12 C12       -13.6098   -2.5072   59.2257 C.ar    1  ZINC000051488227   -0.1500
     13 C13       -14.7014   -3.3307   59.4565 C.ar    1  ZINC000051488227   -0.0700
     14 C14       -15.0414   -4.2626   58.4881 C.ar    1  ZINC000051488227   -0.1700
     15 C15       -14.2862   -4.3395   57.3329 C.ar    1  ZINC000051488227    0.1100
     16 N16       -13.2574   -3.5365   57.1450 N.ar    1  ZINC000051488227   -0.4800
     17 C17        -9.6487   -0.2492   56.8979 C.ar    1  ZINC000051488227   -0.2100
     18 C18        -8.5963    0.5414   56.4788 C.ar    1  ZINC000051488227   -0.0500
     19 C19        -6.4822    2.5365   51.1215 C.3     1  ZINC000051488227    0.0000
     20 C20        -7.5721    3.5321   50.8183 C.ar    1  ZINC000051488227   -0.0900
     21 C21        -7.8359    3.8908   49.5096 C.ar    1  ZINC000051488227   -0.1100
     22 C22        -8.8357    4.8040   49.2314 C.ar    1  ZINC000051488227   -0.1200
     23 C23        -9.5720    5.3581   50.2617 C.ar    1  ZINC000051488227   -0.1100
     24 C24        -9.3087    4.9987   51.5703 C.ar    1  ZINC000051488227   -0.1200
     25 C25        -8.3119    4.0823   51.8483 C.ar    1  ZINC000051488227   -0.1000
     26 C26        -5.1605    3.0213   50.5180 C.3     1  ZINC000051488227   -0.1400
     27 C27        -4.0785    1.9667   50.7647 C.3     1  ZINC000051488227    0.0600
     28 O28        -4.4906    0.7216   50.1972 O.3     1  ZINC000051488227   -0.3800
     29 C29        -5.6961    0.1960   50.7566 C.3     1  ZINC000051488227    0.0500
     30 C30        -6.8430    1.1795   50.5094 C.3     1  ZINC000051488227   -0.1400
     31 H31        -6.3967    1.4459   55.2588 H       1  ZINC000051488227    0.0800
     32 H32        -7.5436    2.7389   54.8332 H       1  ZINC000051488227    0.0800
     33 H33        -9.1872    0.5244   53.1566 H       1  ZINC000051488227    0.1300
     34 H34       -11.0605   -0.8919   53.8939 H       1  ZINC000051488227    0.1400
     35 H35       -10.8136   -2.2233   58.1783 H       1  ZINC000051488227    0.0900
     36 H36       -11.8656   -0.7906   58.2756 H       1  ZINC000051488227    0.0900
     37 H37       -13.3162   -1.7702   59.9585 H       1  ZINC000051488227    0.1400
     38 H38       -15.2729   -3.2482   60.3692 H       1  ZINC000051488227    0.1400
     39 H39       -15.8852   -4.9205   58.6347 H       1  ZINC000051488227    0.1400
     40 H40       -14.5443   -5.0631   56.5737 H       1  ZINC000051488227    0.1600
     41 H41        -9.7776   -0.4653   57.9482 H       1  ZINC000051488227    0.1300
     42 H42        -7.9037    0.9458   57.2022 H       1  ZINC000051488227    0.1300
     43 H43        -7.2607    3.4578   48.7046 H       1  ZINC000051488227    0.1300
     44 H44        -9.0413    5.0848   48.2090 H       1  ZINC000051488227    0.1300
     45 H45       -10.3526    6.0722   50.0444 H       1  ZINC000051488227    0.1200
     46 H46        -9.8838    5.4319   52.3754 H       1  ZINC000051488227    0.1200
     47 H47        -8.1063    3.8015   52.8707 H       1  ZINC000051488227    0.1300
     48 H48        -5.2835    3.1730   49.4456 H       1  ZINC000051488227    0.0900
     49 H49        -4.8679    3.9602   50.9883 H       1  ZINC000051488227    0.0900
     50 H50        -3.1460    2.2869   50.3001 H       1  ZINC000051488227    0.1000
     51 H51        -3.9274    1.8449   51.8373 H       1  ZINC000051488227    0.0500
     52 H52        -5.9287   -0.7593   50.2860 H       1  ZINC000051488227    0.1000
     53 H53        -5.5662    0.0510   51.8290 H       1  ZINC000051488227    0.0700
     54 H54        -7.7537    0.8011   50.9736 H       1  ZINC000051488227    0.0900
     55 H55        -7.0000    1.2939   49.4369 H       1  ZINC000051488227    0.0900
@<TRIPOS>BOND
     1     1     2    2
     2     2     3    1
     3     2    19    1
     4     3     4    1
     5     4     5    1
     6     4    31    1
     7     4    32    1
     8     5    18   ar
     9     5     6   ar
    10     6     7   ar
    11     6    33    1
    12     7     8   ar
    13     7    34    1
    14     8     9    1
    15     8    17   ar
    16     9    10    1
    17    10    11    1
    18    10    35    1
    19    10    36    1
    20    11    16   ar
    21    11    12   ar
    22    12    13   ar
    23    12    37    1
    24    13    14   ar
    25    13    38    1
    26    14    15   ar
    27    14    39    1
    28    15    16   ar
    29    15    40    1
    30    17    18   ar
    31    17    41    1
    32    18    42    1
    33    19    30    1
    34    19    20    1
    35    19    26    1
    36    20    25   ar
    37    20    21   ar
    38    21    22   ar
    39    21    43    1
    40    22    23   ar
    41    22    44    1
    42    23    24   ar
    43    23    45    1
    44    24    25   ar
    45    24    46    1
    46    25    47    1
    47    26    27    1
    48    26    48    1
    49    26    49    1
    50    27    28    1
    51    27    50    1
    52    27    51    1
    53    28    29    1
    54    29    30    1
    55    29    52    1
    56    29    53    1
    57    30    54    1
    58    30    55    1
@<TRIPOS>SUBSTRUCTURE
     1 ZINC000051488227        1 TEMP              0 ****  ****    0 ROOT


##########                                Name:    ZINC000805177769
##########                DOCK_Rotatable_Bonds:                  10
##########                         Heavy_Atoms:                  30
##########                    Molecular_Weight:             417.548
##########                DOCK_Rotatable_Bonds:                  10
##########                       Formal_Charge:           0.0199995
##########                     HBond_Acceptors:                   7
##########                        HBond_Donors:                   1
##########                         Heavy_Atoms:                  30
##########                          Grid_Score:          -32.999519
##########                     Grid_vdw_energy:          -33.555752
##########                      Grid_es_energy:            0.556233
##########           Internal_energy_repulsive:           35.410515

@<TRIPOS>MOLECULE
ZINC000805177769
 65 66 1 0 0
SMALL
USER_CHARGES


@<TRIPOS>ATOM
      1 C1         -1.7355    3.3303   49.8253 C.3     1  ZINC000805177769   -0.1200
      2 C2         -3.0172    2.9021   50.4923 C.ar    1  ZINC000805177769   -0.0800
      3 C3         -3.5505    3.6618   51.5164 C.ar    1  ZINC000805177769   -0.1200
      4 C4         -4.7264    3.2689   52.1284 C.ar    1  ZINC000805177769   -0.1100
      5 C5         -5.3688    2.1167   51.7159 C.ar    1  ZINC000805177769   -0.0900
      6 C6         -6.6502    1.6883   52.3832 C.3     1  ZINC000805177769   -0.0900
      7 C7         -7.8151    1.8555   51.4054 C.3     1  ZINC000805177769    0.1500
      8 H8         -7.7473    1.0962   50.6263 H       1  ZINC000805177769    0.1000
      9 C9         -7.7516    3.2456   50.7695 C.3     1  ZINC000805177769   -0.1700
     10 N10        -9.0822    1.7050   52.1250 N.am    1  ZINC000805177769   -0.6900
     11 C11        -9.5758    0.4751   52.3706 C.2     1  ZINC000805177769    0.5100
     12 O12        -8.9713   -0.5075   51.9943 O.2     1  ZINC000805177769   -0.5100
     13 C13       -10.8676    0.3217   53.1063 C.2     1  ZINC000805177769    0.5200
     14 O14       -11.9177    0.3387   52.4985 O.2     1  ZINC000805177769   -0.5200
     15 N15       -10.8661    0.1643   54.4449 N.am    1  ZINC000805177769   -0.5900
     16 C16       -12.0582    0.0031   55.2900 C.3     1  ZINC000805177769    0.1100
     17 C17       -11.5694   -0.1707   56.7434 C.3     1  ZINC000805177769   -0.1500
     18 C18       -10.1094   -0.6640   56.5623 C.3     1  ZINC000805177769    0.1500
     19 H19       -10.0797   -1.7383   56.3805 H       1  ZINC000805177769    0.1200
     20 N20        -9.2872   -0.3073   57.7213 N.am    1  ZINC000805177769   -0.5900
     21 C21        -8.1019    0.5358   57.5469 C.3     1  ZINC000805177769    0.0800
     22 C22        -9.6212   -0.7551   58.9478 C.2     1  ZINC000805177769    0.6600
     23 O23       -10.6052   -1.4532   59.0927 O.2     1  ZINC000805177769   -0.5600
     24 O24        -8.8647   -0.4287   60.0127 O.3     1  ZINC000805177769   -0.3600
     25 C25        -9.4826    0.4024   61.0304 C.3     1  ZINC000805177769    0.1400
     26 C26        -8.3986    0.9914   61.9354 C.3     1  ZINC000805177769   -0.1800
     27 C27       -10.2591    1.5373   60.3597 C.3     1  ZINC000805177769   -0.1400
     28 C28       -10.4413   -0.4458   61.8685 C.3     1  ZINC000805177769   -0.1800
     29 C29        -9.6684    0.1191   55.3033 C.3     1  ZINC000805177769    0.0900
     30 C30        -4.8360    1.3576   50.6905 C.ar    1  ZINC000805177769   -0.0800
     31 C31        -5.5366    0.1016   50.2404 C.3     1  ZINC000805177769   -0.1200
     32 C32        -3.6625    1.7524   50.0761 C.ar    1  ZINC000805177769   -0.1200
     33 H33        -1.9648    3.9825   48.9825 H       1  ZINC000805177769    0.0700
     34 H34        -1.1147    3.8677   50.5421 H       1  ZINC000805177769    0.0700
     35 H35        -1.2000    2.4505   49.4686 H       1  ZINC000805177769    0.0700
     36 H36        -3.0486    4.5621   51.8388 H       1  ZINC000805177769    0.1200
     37 H37        -5.1428    3.8622   52.9291 H       1  ZINC000805177769    0.1200
     38 H38        -6.5729    0.6426   52.6808 H       1  ZINC000805177769    0.0800
     39 H39        -6.8246    2.3051   53.2649 H       1  ZINC000805177769    0.0900
     40 H40        -7.8193    4.0049   51.5485 H       1  ZINC000805177769    0.0600
     41 H41        -6.8088    3.3575   50.2340 H       1  ZINC000805177769    0.0700
     42 H42        -8.5814    3.3647   50.0728 H       1  ZINC000805177769    0.0600
     43 H43        -9.5660    2.4905   52.4248 H       1  ZINC000805177769    0.4100
     44 H44       -12.6887    0.8891   55.2145 H       1  ZINC000805177769    0.0900
     45 H45       -12.6167   -0.8795   54.9786 H       1  ZINC000805177769    0.0900
     46 H46       -11.5919    0.7809   57.2744 H       1  ZINC000805177769    0.0900
     47 H47       -12.1672   -0.9185   57.2645 H       1  ZINC000805177769    0.0900
     48 H48        -8.3825    1.5837   57.6533 H       1  ZINC000805177769    0.0600
     49 H49        -7.3596    0.2799   58.3030 H       1  ZINC000805177769    0.0800
     50 H50        -7.6816    0.3711   56.5547 H       1  ZINC000805177769    0.0800
     51 H51        -7.7155    1.5956   61.3383 H       1  ZINC000805177769    0.0600
     52 H52        -8.8625    1.6152   62.6993 H       1  ZINC000805177769    0.0700
     53 H53        -7.8454    0.1828   62.4132 H       1  ZINC000805177769    0.0900
     54 H54       -11.0314    1.1178   59.7150 H       1  ZINC000805177769    0.0700
     55 H55       -10.7229    2.1612   61.1236 H       1  ZINC000805177769    0.0800
     56 H56        -9.5760    2.1416   59.7626 H       1  ZINC000805177769    0.0700
     57 H57        -9.8882   -1.2542   62.3464 H       1  ZINC000805177769    0.0900
     58 H58       -10.9052    0.1782   62.6324 H       1  ZINC000805177769    0.0700
     59 H59       -11.2136   -0.8653   61.2238 H       1  ZINC000805177769    0.0600
     60 H60        -8.8550   -0.4018   54.7982 H       1  ZINC000805177769    0.0900
     61 H61        -9.3629    1.1301   55.5729 H       1  ZINC000805177769    0.0800
     62 H62        -6.2443    0.3446   49.4477 H       1  ZINC000805177769    0.0700
     63 H63        -4.8012   -0.6101   49.8652 H       1  ZINC000805177769    0.0700
     64 H64        -6.0711   -0.3381   51.0824 H       1  ZINC000805177769    0.0700
     65 H65        -3.2463    1.1594   49.2752 H       1  ZINC000805177769    0.1200
@<TRIPOS>BOND
     1     1     2    1
     2     1    33    1
     3     1    34    1
     4     1    35    1
     5     2    32   ar
     6     2     3   ar
     7     3     4   ar
     8     3    36    1
     9     4     5   ar
    10     4    37    1
    11     5     6    1
    12     5    30   ar
    13     6     7    1
    14     6    38    1
    15     6    39    1
    16     7     8    1
    17     7     9    1
    18     7    10    1
    19     9    40    1
    20     9    41    1
    21     9    42    1
    22    10    11   am
    23    10    43    1
    24    11    12    2
    25    11    13    1
    26    13    14    2
    27    13    15   am
    28    15    29    1
    29    15    16    1
    30    16    17    1
    31    16    44    1
    32    16    45    1
    33    17    18    1
    34    17    46    1
    35    17    47    1
    36    18    19    1
    37    18    20    1
    38    18    29    1
    39    20    21    1
    40    20    22   am
    41    21    48    1
    42    21    49    1
    43    21    50    1
    44    22    23    2
    45    22    24    1
    46    24    25    1
    47    25    26    1
    48    25    27    1
    49    25    28    1
    50    26    51    1
    51    26    52    1
    52    26    53    1
    53    27    54    1
    54    27    55    1
    55    27    56    1
    56    28    57    1
    57    28    58    1
    58    28    59    1
    59    29    60    1
    60    29    61    1
    61    30    31    1
    62    30    32   ar
    63    31    62    1
    64    31    63    1
    65    31    64    1
    66    32    65    1
@<TRIPOS>SUBSTRUCTURE
     1 ZINC000805177769        1 TEMP              0 ****  ****    0 ROOT


##########                                Name:    ZINC000518242403
##########                DOCK_Rotatable_Bonds:                   6
##########                         Heavy_Atoms:                  27
##########                    Molecular_Weight:             370.405
##########                DOCK_Rotatable_Bonds:                   6
##########                       Formal_Charge:          -0.0200004
##########                     HBond_Acceptors:                   7
##########                        HBond_Donors:                   1
##########                         Heavy_Atoms:                  27
##########                          Grid_Score:          -32.984921
##########                     Grid_vdw_energy:          -33.020973
##########                      Grid_es_energy:            0.036053
##########           Internal_energy_repulsive:           18.288376

@<TRIPOS>MOLECULE
ZINC000518242403
 49 52 1 0 0
SMALL
USER_CHARGES


@<TRIPOS>ATOM
      1 C1         -6.8069    3.6740   51.6377 C.3     1  ZINC000518242403   -0.1800
      2 C2         -7.1012    2.7700   50.4389 C.3     1  ZINC000518242403    0.1000
      3 N3         -6.3436    1.5231   50.5700 N.am    1  ZINC000518242403   -0.6200
      4 C4         -6.9936    0.3235   51.1036 C.3     1  ZINC000518242403    0.1500
      5 C5         -7.9326    0.7175   52.2455 C.3     1  ZINC000518242403    0.0300
      6 H6         -8.4551    1.6394   51.9902 H       1  ZINC000518242403    0.0900
      7 C7         -8.9514   -0.4043   52.4881 C.3     1  ZINC000518242403    0.0300
      8 O8         -9.8034   -0.0101   53.5691 O.3     1  ZINC000518242403   -0.3000
      9 C9         -9.1938    0.5051   54.6715 C.ar    1  ZINC000518242403    0.0500
     10 C10        -9.8914    0.5678   55.8683 C.ar    1  ZINC000518242403   -0.1100
     11 C11        -9.2867    1.0914   56.9958 C.ar    1  ZINC000518242403   -0.1200
     12 C12        -7.9857    1.5535   56.9336 C.ar    1  ZINC000518242403   -0.1200
     13 C13        -7.2840    1.4925   55.7440 C.ar    1  ZINC000518242403   -0.1100
     14 C14        -7.8842    0.9674   54.6096 C.ar    1  ZINC000518242403    0.0500
     15 O15        -7.1781    0.9071   53.4475 O.3     1  ZINC000518242403   -0.3000
     16 C16        -5.0485    1.4795   50.1994 C.2     1  ZINC000518242403    0.7100
     17 O17        -4.4199    0.4441   50.3067 O.2     1  ZINC000518242403   -0.5700
     18 N18        -4.4499    2.5834   49.7100 N.am    1  ZINC000518242403   -0.6800
     19 C19        -3.1034    2.5380   49.3248 C.ar    1  ZINC000518242403    0.1700
     20 C20        -2.7622    2.1394   48.0399 C.ar    1  ZINC000518242403   -0.1000
     21 C21        -1.4311    2.0952   47.6595 C.ar    1  ZINC000518242403    0.0500
     22 C22        -0.4373    2.4510   48.5681 C.ar    1  ZINC000518242403    0.0200
     23 C23        -0.7822    2.8476   49.8500 C.ar    1  ZINC000518242403   -0.0800
     24 C24        -2.1107    2.8972   50.2267 C.ar    1  ZINC000518242403   -0.1000
     25 C25        -2.4820    3.3291   51.6219 C.3     1  ZINC000518242403   -0.1100
     26 O26         0.7777    2.3248   47.9568 O.3     1  ZINC000518242403   -0.3100
     27 C27         0.5422    1.4994   46.8007 C.3     1  ZINC000518242403    0.2100
     28 O28        -0.8394    1.7464   46.4798 O.3     1  ZINC000518242403   -0.3100
     29 H29        -7.0996    3.1657   52.5565 H       1  ZINC000518242403    0.0600
     30 H30        -5.7408    3.8984   51.6705 H       1  ZINC000518242403    0.0600
     31 H31        -7.3707    4.6017   51.5403 H       1  ZINC000518242403    0.0700
     32 H32        -8.1675    2.5456   50.4063 H       1  ZINC000518242403    0.1000
     33 H33        -6.8086    3.2782   49.5202 H       1  ZINC000518242403    0.0700
     34 H34        -7.5663   -0.1615   50.3132 H       1  ZINC000518242403    0.1100
     35 H35        -6.2354   -0.3646   51.4776 H       1  ZINC000518242403    0.0900
     36 H36        -9.5470   -0.5608   51.5888 H       1  ZINC000518242403    0.1300
     37 H37        -8.4292   -1.3250   52.7487 H       1  ZINC000518242403    0.0800
     38 H38       -10.9082    0.2075   55.9194 H       1  ZINC000518242403    0.1300
     39 H39        -9.8318    1.1392   57.9269 H       1  ZINC000518242403    0.1300
     40 H40        -7.5164    1.9632   57.8157 H       1  ZINC000518242403    0.1300
     41 H41        -6.2675    1.8543   55.6980 H       1  ZINC000518242403    0.1300
     42 H42        -4.9513    3.4094   49.6244 H       1  ZINC000518242403    0.4100
     43 H43        -3.5343    1.8636   47.3369 H       1  ZINC000518242403    0.1500
     44 H44        -0.0116    3.1236   50.5545 H       1  ZINC000518242403    0.1400
     45 H45        -2.6248    4.4095   51.6419 H       1  ZINC000518242403    0.0800
     46 H46        -3.4062    2.8349   51.9214 H       1  ZINC000518242403    0.0700
     47 H47        -1.6836    3.0552   52.3115 H       1  ZINC000518242403    0.0800
     48 H48         1.1871    1.8026   45.9759 H       1  ZINC000518242403    0.1300
     49 H49         0.6972    0.4480   47.0428 H       1  ZINC000518242403    0.0900
@<TRIPOS>BOND
     1     1     2    1
     2     1    29    1
     3     1    30    1
     4     1    31    1
     5     2     3    1
     6     2    32    1
     7     2    33    1
     8     3     4    1
     9     3    16   am
    10     4     5    1
    11     4    34    1
    12     4    35    1
    13     5     6    1
    14     5    15    1
    15     5     7    1
    16     7     8    1
    17     7    36    1
    18     7    37    1
    19     8     9    1
    20     9    14   ar
    21     9    10   ar
    22    10    11   ar
    23    10    38    1
    24    11    12   ar
    25    11    39    1
    26    12    13   ar
    27    12    40    1
    28    13    14   ar
    29    13    41    1
    30    14    15    1
    31    16    17    2
    32    16    18   am
    33    18    19    1
    34    18    42    1
    35    19    24   ar
    36    19    20   ar
    37    20    21   ar
    38    20    43    1
    39    21    28    1
    40    21    22   ar
    41    22    23   ar
    42    22    26    1
    43    23    24   ar
    44    23    44    1
    45    24    25    1
    46    25    45    1
    47    25    46    1
    48    25    47    1
    49    26    27    1
    50    27    28    1
    51    27    48    1
    52    27    49    1
@<TRIPOS>SUBSTRUCTURE
     1 ZINC000518242403        1 TEMP              0 ****  ****    0 ROOT


##########                                Name:    ZINC000007167963
##########                DOCK_Rotatable_Bonds:                   8
##########                         Heavy_Atoms:                  25
##########                    Molecular_Weight:             378.433
##########                DOCK_Rotatable_Bonds:                   8
##########                       Formal_Charge:        -1.01328e-06
##########                     HBond_Acceptors:                  10
##########                        HBond_Donors:                   3
##########                         Heavy_Atoms:                  25
##########                          Grid_Score:          -32.981571
##########                     Grid_vdw_energy:          -30.033934
##########                      Grid_es_energy:           -2.947638
##########           Internal_energy_repulsive:            7.786389

@<TRIPOS>MOLECULE
ZINC000007167963
 39 41 1 0 0
SMALL
USER_CHARGES


@<TRIPOS>ATOM
      1 C1         -8.8987   -0.6776   59.7751 C.3     1  ZINC000007167963   -0.0800
      2 C2         -9.5699   -0.8686   58.4394 C.2     1  ZINC000007167963    0.0900
      3 C3         -9.2315   -0.2390   57.2812 C.2     1  ZINC000007167963   -0.1500
      4 C4         -8.1512    0.7506   57.0861 C.2     1  ZINC000007167963    0.2600
      5 N5         -7.3438    1.2107   58.0105 N.2     1  ZINC000007167963   -0.2700
      6 N6         -6.5284    2.0554   57.4846 N.2     1  ZINC000007167963   -0.2800
      7 C7         -6.7827    2.1685   56.2029 C.2     1  ZINC000007167963    0.1200
      8 S8         -5.9323    3.2037   55.0585 S.3     1  ZINC000007167963    0.1500
      9 C9         -6.9190    2.9046   53.5708 C.3     1  ZINC000007167963   -0.1200
     10 H10        -7.3148    1.8893   53.5954 H       1  ZINC000007167963    0.1400
     11 C11        -8.0777    3.9024   53.5182 C.3     1  ZINC000007167963   -0.1500
     12 C12        -6.0522    3.0765   52.3501 C.2     1  ZINC000007167963    0.5300
     13 O13        -6.4035    3.8175   51.4565 O.2     1  ZINC000007167963   -0.4900
     14 N14        -4.8869    2.4067   52.2514 N.am    1  ZINC000007167963   -0.6100
     15 C15        -4.0886    2.5662   51.1289 C.2     1  ZINC000007167963    0.0800
     16 C16        -4.3047    1.9482   49.9246 C.2     1  ZINC000007167963   -0.2400
     17 C17        -5.4206    1.0312   49.6719 C.2     1  ZINC000007167963    0.5900
     18 N18        -5.2430   -0.2985   49.8025 N.am    1  ZINC000007167963   -0.8400
     19 O19        -6.5072    1.4707   49.3443 O.2     1  ZINC000007167963   -0.5600
     20 C20        -3.3152    2.2980   48.9292 C.2     1  ZINC000007167963   -0.0900
     21 C21        -2.3994    3.1438   49.3794 C.2     1  ZINC000007167963   -0.2800
     22 S22        -2.7080    3.5630   51.0550 S.3     1  ZINC000007167963    0.3000
     23 O23        -7.8100    1.3434   55.9207 O.3     1  ZINC000007167963   -0.2000
     24 C24       -10.1622   -0.7479   56.2654 C.2     1  ZINC000007167963   -0.1800
     25 C25       -10.9605   -1.6224   56.8991 C.2     1  ZINC000007167963   -0.0300
     26 O26       -10.5981   -1.6917   58.1889 O.3     1  ZINC000007167963   -0.1700
     27 H27        -9.3788   -1.3153   60.5174 H       1  ZINC000007167963    0.0800
     28 H28        -7.8450   -0.9446   59.6938 H       1  ZINC000007167963    0.1000
     29 H29        -8.9868    0.3651   60.0803 H       1  ZINC000007167963    0.1000
     30 H30        -8.7046    3.7781   54.4012 H       1  ZINC000007167963    0.0900
     31 H31        -7.6819    4.9177   53.4937 H       1  ZINC000007167963    0.0800
     32 H32        -8.6719    3.7223   52.6225 H       1  ZINC000007167963    0.0800
     33 H33        -4.6067    1.8131   52.9655 H       1  ZINC000007167963    0.4400
     34 H34        -5.9811   -0.9051   49.6342 H       1  ZINC000007167963    0.4000
     35 H35        -4.3775   -0.6488   50.0647 H       1  ZINC000007167963    0.4100
     36 H36        -3.3215    1.9088   47.9218 H       1  ZINC000007167963    0.1500
     37 H37        -1.5770    3.5262   48.7930 H       1  ZINC000007167963    0.1700
     38 H38       -10.1977   -0.4740   55.2213 H       1  ZINC000007167963    0.1600
     39 H39       -11.7628   -2.1831   56.4425 H       1  ZINC000007167963    0.2200
@<TRIPOS>BOND
     1     1     2    1
     2     1    27    1
     3     1    28    1
     4     1    29    1
     5     2    26    1
     6     2     3    2
     7     3     4    1
     8     3    24    1
     9     4    23    1
    10     4     5    2
    11     5     6    1
    12     6     7    2
    13     7     8    1
    14     7    23    1
    15     8     9    1
    16     9    10    1
    17     9    11    1
    18     9    12    1
    19    11    30    1
    20    11    31    1
    21    11    32    1
    22    12    13    2
    23    12    14   am
    24    14    15    1
    25    14    33    1
    26    15    22    1
    27    15    16    2
    28    16    17    1
    29    16    20    1
    30    17    18   am
    31    17    19    2
    32    18    34    1
    33    18    35    1
    34    20    21    2
    35    20    36    1
    36    21    22    1
    37    21    37    1
    38    24    25    2
    39    24    38    1
    40    25    26    1
    41    25    39    1
@<TRIPOS>SUBSTRUCTURE
     1 ZINC000007167963        1 TEMP              0 ****  ****    0 ROOT


##########                                Name:    ZINC000762187039
##########                DOCK_Rotatable_Bonds:                   9
##########                         Heavy_Atoms:                  25
##########                    Molecular_Weight:             354.473
##########                DOCK_Rotatable_Bonds:                   9
##########                       Formal_Charge:        -1.78814e-07
##########                     HBond_Acceptors:                   5
##########                        HBond_Donors:                   1
##########                         Heavy_Atoms:                  25
##########                          Grid_Score:          -32.973450
##########                     Grid_vdw_energy:          -33.111595
##########                      Grid_es_energy:            0.138147
##########           Internal_energy_repulsive:            5.733397

@<TRIPOS>MOLECULE
ZINC000762187039
 47 49 1 0 0
SMALL
USER_CHARGES


@<TRIPOS>ATOM
      1 C1         -8.8745   -0.6856   65.6718 C.3     1  ZINC000762187039   -0.0800
      2 C2         -8.7906   -0.0022   64.3312 C.2     1  ZINC000762187039    0.0500
      3 N3         -9.0407   -0.5661   63.1980 N.2     1  ZINC000762187039   -0.4700
      4 C4         -8.9196    0.1779   62.1170 C.2     1  ZINC000762187039    0.0700
      5 C5         -9.1808   -0.3507   60.7302 C.3     1  ZINC000762187039   -0.0300
      6 C6         -7.8897   -0.2941   59.9112 C.3     1  ZINC000762187039   -0.1300
      7 C7         -8.0395    0.7200   58.8065 C.2     1  ZINC000762187039    0.5200
      8 O8         -8.7590    0.4831   57.8595 O.2     1  ZINC000762187039   -0.5400
      9 N9         -7.3738    1.8901   58.8711 N.am    1  ZINC000762187039   -0.7300
     10 C10        -7.5181    2.8752   57.7964 C.3     1  ZINC000762187039    0.1200
     11 C11        -6.4928    2.5859   56.6982 C.3     1  ZINC000762187039   -0.1300
     12 C12        -6.5827    3.6667   55.6190 C.3     1  ZINC000762187039    0.0600
     13 O13        -7.4685    3.2341   54.5844 O.3     1  ZINC000762187039   -0.3100
     14 C14        -6.9255    2.5122   53.5693 C.ar    1  ZINC000762187039    0.1300
     15 C15        -7.0782    1.1226   53.5523 C.ar    1  ZINC000762187039   -0.1900
     16 C16        -6.5463    0.3729   52.5498 C.ar    1  ZINC000762187039   -0.0600
     17 C17        -5.8324    0.9999   51.5140 C.ar    1  ZINC000762187039   -0.0800
     18 C18        -5.2701    0.2561   50.4626 C.ar    1  ZINC000762187039   -0.0900
     19 C19        -4.5855    0.8958   49.4756 C.ar    1  ZINC000762187039   -0.1300
     20 C20        -4.4321    2.2811   49.4901 C.ar    1  ZINC000762187039   -0.1000
     21 C21        -4.9625    3.0343   50.4917 C.ar    1  ZINC000762187039   -0.1200
     22 C22        -5.6766    2.4090   51.5289 C.ar    1  ZINC000762187039   -0.0100
     23 C23        -6.2422    3.1543   52.5758 C.ar    1  ZINC000762187039   -0.1500
     24 C24        -8.5466    1.4396   62.3515 C.2     1  ZINC000762187039   -0.2600
     25 S25        -8.3575    1.6344   64.0925 S.3     1  ZINC000762187039    0.1200
     26 H26        -8.6167    0.0239   66.4581 H       1  ZINC000762187039    0.0800
     27 H27        -9.8891   -1.0509   65.8306 H       1  ZINC000762187039    0.0900
     28 H28        -8.1783   -1.5240   65.6965 H       1  ZINC000762187039    0.0900
     29 H29        -9.5259   -1.3826   60.7936 H       1  ZINC000762187039    0.0900
     30 H30        -9.9445    0.2589   60.2469 H       1  ZINC000762187039    0.0900
     31 H31        -7.0611   -0.0066   60.5584 H       1  ZINC000762187039    0.0900
     32 H32        -7.6901   -1.2748   59.4794 H       1  ZINC000762187039    0.1000
     33 H33        -6.7992    2.0800   59.6292 H       1  ZINC000762187039    0.4000
     34 H34        -8.5235    2.8138   57.3800 H       1  ZINC000762187039    0.0700
     35 H35        -7.3506    3.8755   58.1955 H       1  ZINC000762187039    0.0700
     36 H36        -5.4910    2.5839   57.1279 H       1  ZINC000762187039    0.0800
     37 H37        -6.7000    1.6118   56.2551 H       1  ZINC000762187039    0.0800
     38 H38        -6.9612    4.5891   56.0593 H       1  ZINC000762187039    0.0700
     39 H39        -5.5926    3.8440   55.1990 H       1  ZINC000762187039    0.0700
     40 H40        -7.6261    0.6375   54.3466 H       1  ZINC000762187039    0.1300
     41 H41        -6.6715   -0.6998   52.5498 H       1  ZINC000762187039    0.1300
     42 H42        -5.3805   -0.8180   50.4380 H       1  ZINC000762187039    0.1300
     43 H43        -4.1542    0.3214   48.6691 H       1  ZINC000762187039    0.1200
     44 H44        -3.8838    2.7639   48.6947 H       1  ZINC000762187039    0.1200
     45 H45        -4.8357    4.1068   50.4899 H       1  ZINC000762187039    0.1300
     46 H46        -6.1346    4.2287   52.5975 H       1  ZINC000762187039    0.1300
     47 H47        -8.3922    2.2055   61.6060 H       1  ZINC000762187039    0.1800
@<TRIPOS>BOND
     1     1     2    1
     2     1    26    1
     3     1    27    1
     4     1    28    1
     5     2    25    1
     6     2     3    2
     7     3     4    1
     8     4     5    1
     9     4    24    2
    10     5     6    1
    11     5    29    1
    12     5    30    1
    13     6     7    1
    14     6    31    1
    15     6    32    1
    16     7     8    2
    17     7     9   am
    18     9    10    1
    19     9    33    1
    20    10    11    1
    21    10    34    1
    22    10    35    1
    23    11    12    1
    24    11    36    1
    25    11    37    1
    26    12    13    1
    27    12    38    1
    28    12    39    1
    29    13    14    1
    30    14    23   ar
    31    14    15   ar
    32    15    16   ar
    33    15    40    1
    34    16    17   ar
    35    16    41    1
    36    17    22   ar
    37    17    18   ar
    38    18    19   ar
    39    18    42    1
    40    19    20   ar
    41    19    43    1
    42    20    21   ar
    43    20    44    1
    44    21    22   ar
    45    21    45    1
    46    22    23   ar
    47    23    46    1
    48    24    25    1
    49    24    47    1
@<TRIPOS>SUBSTRUCTURE
     1 ZINC000762187039        1 TEMP              0 ****  ****    0 ROOT


##########                                Name:    ZINC000772422035
##########                DOCK_Rotatable_Bonds:                  10
##########                         Heavy_Atoms:                  25
##########                    Molecular_Weight:             348.399
##########                DOCK_Rotatable_Bonds:                  10
##########                       Formal_Charge:          0.00999987
##########                     HBond_Acceptors:                   7
##########                        HBond_Donors:                   0
##########                         Heavy_Atoms:                  25
##########                          Grid_Score:          -32.966507
##########                     Grid_vdw_energy:          -33.105370
##########                      Grid_es_energy:            0.138865
##########           Internal_energy_repulsive:           11.488121

@<TRIPOS>MOLECULE
ZINC000772422035
 49 50 1 0 0
SMALL
USER_CHARGES


@<TRIPOS>ATOM
      1 C1        -15.2096   -3.8515   58.6010 C.3     1  ZINC000772422035    0.0300
      2 O2        -13.9900   -3.3007   59.1023 O.3     1  ZINC000772422035   -0.3900
      3 C3        -13.1736   -2.6893   58.1015 C.3     1  ZINC000772422035    0.0600
      4 C4        -11.9023   -2.1362   58.7483 C.3     1  ZINC000772422035    0.0700
      5 O5        -11.1238   -1.4550   57.7625 O.3     1  ZINC000772422035   -0.3000
      6 C6        -10.0159   -0.8024   58.1955 C.ar    1  ZINC000772422035    0.3300
      7 C7         -9.3585    0.0762   57.3442 C.ar    1  ZINC000772422035   -0.1700
      8 C8         -8.2294    0.7358   57.7981 C.ar    1  ZINC000772422035   -0.0200
      9 C9         -7.4876    1.6975   56.9059 C.3     1  ZINC000772422035    0.1100
     10 O10        -7.5282    1.2166   55.5364 O.3     1  ZINC000772422035   -0.3500
     11 C11        -6.8485    1.9254   54.6213 C.2     1  ZINC000772422035    0.4700
     12 O12        -6.4267    3.0231   54.8987 O.2     1  ZINC000772422035   -0.5000
     13 C13        -6.6115    1.3519   53.2480 C.3     1  ZINC000772422035   -0.1100
     14 C14        -7.8467    1.5882   52.3766 C.3     1  ZINC000772422035    0.0000
     15 H15        -8.4851    2.3364   52.8465 H       1  ZINC000772422035    0.1000
     16 C16        -8.6225    0.2782   52.2254 C.3     1  ZINC000772422035   -0.1500
     17 C17        -7.4165    2.0770   51.0175 C.2     1  ZINC000772422035   -0.2000
     18 C18        -6.6801    1.4203   50.0896 C.2     1  ZINC000772422035   -0.0200
     19 C19        -6.1133    0.0290   50.2072 C.3     1  ZINC000772422035   -0.0800
     20 O20        -6.5549    2.2524   49.0461 O.3     1  ZINC000772422035    0.1000
     21 N21        -7.1199    3.3028   49.2449 N.2     1  ZINC000772422035   -0.3600
     22 C22        -7.6935    3.3249   50.4133 C.2     1  ZINC000772422035    0.0300
     23 C23        -8.4871    4.4595   51.0081 C.3     1  ZINC000772422035   -0.0800
     24 C24        -7.7961    0.4915   59.0938 C.ar    1  ZINC000772422035   -0.1900
     25 C25        -8.4990   -0.3954   59.8852 C.ar    1  ZINC000772422035    0.1400
     26 N26        -9.5753   -1.0049   59.4262 N.ar    1  ZINC000772422035   -0.5300
     27 H27       -15.7719   -4.2966   59.4219 H       1  ZINC000772422035    0.0900
     28 H28       -15.8028   -3.0615   58.1404 H       1  ZINC000772422035    0.0400
     29 H29       -14.9843   -4.6167   57.8580 H       1  ZINC000772422035    0.0400
     30 H30       -12.9053   -3.4306   57.3487 H       1  ZINC000772422035    0.0600
     31 H31       -13.7250   -1.8758   57.6299 H       1  ZINC000772422035    0.0700
     32 H32       -12.1720   -1.4403   59.5428 H       1  ZINC000772422035    0.0800
     33 H33       -11.3206   -2.9575   59.1669 H       1  ZINC000772422035    0.0800
     34 H34        -9.7232    0.2424   56.3413 H       1  ZINC000772422035    0.1400
     35 H35        -7.9574    2.6795   56.9602 H       1  ZINC000772422035    0.0900
     36 H36        -6.4510    1.7719   57.2343 H       1  ZINC000772422035    0.0900
     37 H37        -5.7483    1.8392   52.7947 H       1  ZINC000772422035    0.1100
     38 H38        -6.4234    0.2813   53.3288 H       1  ZINC000772422035    0.1100
     39 H39        -7.9496   -0.5041   51.8743 H       1  ZINC000772422035    0.0600
     40 H40        -9.0418   -0.0091   53.1896 H       1  ZINC000772422035    0.0800
     41 H41        -9.4288    0.4145   51.5047 H       1  ZINC000772422035    0.0600
     42 H42        -6.8702   -0.6978   49.9123 H       1  ZINC000772422035    0.0900
     43 H43        -5.2449   -0.0659   49.5552 H       1  ZINC000772422035    0.0900
     44 H44        -5.8147   -0.1557   51.2391 H       1  ZINC000772422035    0.0900
     45 H45        -9.5470    4.3077   50.8040 H       1  ZINC000772422035    0.0800
     46 H46        -8.3253    4.4905   52.0856 H       1  ZINC000772422035    0.0800
     47 H47        -8.1630    5.4012   50.5649 H       1  ZINC000772422035    0.0800
     48 H48        -6.9185    0.9893   59.4789 H       1  ZINC000772422035    0.1400
     49 H49        -8.1661   -0.5889   60.8943 H       1  ZINC000772422035    0.1700
@<TRIPOS>BOND
     1     1     2    1
     2     1    27    1
     3     1    28    1
     4     1    29    1
     5     2     3    1
     6     3     4    1
     7     3    30    1
     8     3    31    1
     9     4     5    1
    10     4    32    1
    11     4    33    1
    12     5     6    1
    13     6    26   ar
    14     6     7   ar
    15     7     8   ar
    16     7    34    1
    17     8     9    1
    18     8    24   ar
    19     9    10    1
    20     9    35    1
    21     9    36    1
    22    10    11    1
    23    11    12    2
    24    11    13    1
    25    13    14    1
    26    13    37    1
    27    13    38    1
    28    14    15    1
    29    14    16    1
    30    14    17    1
    31    16    39    1
    32    16    40    1
    33    16    41    1
    34    17    22    1
    35    17    18    2
    36    18    19    1
    37    18    20    1
    38    19    42    1
    39    19    43    1
    40    19    44    1
    41    20    21    1
    42    21    22    2
    43    22    23    1
    44    23    45    1
    45    23    46    1
    46    23    47    1
    47    24    25   ar
    48    24    48    1
    49    25    26   ar
    50    25    49    1
@<TRIPOS>SUBSTRUCTURE
     1 ZINC000772422035        1 TEMP              0 ****  ****    0 ROOT


##########                                Name:    ZINC000498646479
##########                DOCK_Rotatable_Bonds:                   7
##########                         Heavy_Atoms:                  29
##########                    Molecular_Weight:              407.58
##########                DOCK_Rotatable_Bonds:                   7
##########                       Formal_Charge:          -0.0199997
##########                     HBond_Acceptors:                   5
##########                        HBond_Donors:                   0
##########                         Heavy_Atoms:                  29
##########                          Grid_Score:          -32.962154
##########                     Grid_vdw_energy:          -32.990517
##########                      Grid_es_energy:            0.028363
##########           Internal_energy_repulsive:           22.607973

@<TRIPOS>MOLECULE
ZINC000498646479
 58 61 1 0 0
SMALL
USER_CHARGES


@<TRIPOS>ATOM
      1 C1         -9.3642   -0.5019   61.0861 C.3     1  ZINC000498646479   -0.1500
      2 C2         -8.2255   -0.7853   60.1043 C.3     1  ZINC000498646479   -0.0600
      3 C3         -8.4368    0.0156   58.8453 C.2     1  ZINC000498646479   -0.1700
      4 C4         -9.1421   -0.3870   57.7872 C.2     1  ZINC000498646479   -0.1400
      5 C5         -9.1981    0.5210   56.7438 C.2     1  ZINC000498646479   -0.1300
      6 C6         -8.5382    1.6609   56.9548 C.2     1  ZINC000498646479   -0.1900
      7 C7         -8.4472    2.8053   55.9785 C.3     1  ZINC000498646479    0.1300
      8 N8         -8.2616    2.2769   54.6205 N.3     1  ZINC000498646479   -0.5300
      9 C9         -6.8356    2.1019   54.3139 C.3     1  ZINC000498646479    0.0400
     10 C10        -6.6902    1.3840   52.9680 C.3     1  ZINC000498646479    0.1200
     11 N11        -7.4570    2.1275   51.9567 N.am    1  ZINC000498646479   -0.6100
     12 C12        -6.8904    2.4931   50.7898 C.2     1  ZINC000498646479    0.5200
     13 O13        -7.5376    3.1058   49.9672 O.2     1  ZINC000498646479   -0.5400
     14 C14        -5.4528    2.1405   50.5072 C.3     1  ZINC000498646479   -0.1000
     15 H15        -4.8505    2.3313   51.3953 H       1  ZINC000498646479    0.0900
     16 C16        -5.3548    0.6602   50.1328 C.3     1  ZINC000498646479   -0.1500
     17 C17        -4.9366    2.9950   49.3477 C.3     1  ZINC000498646479   -0.0600
     18 C18        -3.4339    3.0838   49.4193 C.ar    1  ZINC000498646479   -0.1200
     19 C19        -2.8087    3.9140   50.3671 C.ar    1  ZINC000498646479   -0.0200
     20 C20        -3.5388    4.6890   51.2797 C.ar    1  ZINC000498646479   -0.1200
     21 C21        -2.8755    5.4734   52.1742 C.ar    1  ZINC000498646479   -0.1000
     22 C22        -1.4825    5.5182   52.1961 C.ar    1  ZINC000498646479   -0.1200
     23 C23        -0.7415    4.7791   51.3249 C.ar    1  ZINC000498646479   -0.0900
     24 C24        -1.3901    3.9583   50.3886 C.ar    1  ZINC000498646479   -0.1100
     25 C25        -0.6796    3.1738   49.4662 C.ar    1  ZINC000498646479    0.1400
     26 N26        -1.3302    2.4212   48.6098 N.ar    1  ZINC000498646479   -0.4800
     27 C27        -2.6538    2.3574   48.5714 C.ar    1  ZINC000498646479    0.0800
     28 C28        -8.8586    2.4611   52.2526 C.3     1  ZINC000498646479    0.1100
     29 C29        -8.9186    3.1365   53.6268 C.3     1  ZINC000498646479    0.0400
     30 S30        -7.7976    1.6273   58.5497 S.3     1  ZINC000498646479    0.1300
     31 H31        -9.2115   -1.0812   61.9967 H       1  ZINC000498646479    0.0600
     32 H32        -9.3782    0.5606   61.3294 H       1  ZINC000498646479    0.0600
     33 H33       -10.3143   -0.7831   60.6318 H       1  ZINC000498646479    0.0600
     34 H34        -7.2755   -0.5041   60.5587 H       1  ZINC000498646479    0.0800
     35 H35        -8.2116   -1.8477   59.8611 H       1  ZINC000498646479    0.0700
     36 H36        -9.6320   -1.3486   57.7472 H       1  ZINC000498646479    0.1400
     37 H37        -9.7349    0.3213   55.8282 H       1  ZINC000498646479    0.1300
     38 H38        -9.3658    3.3907   56.0183 H       1  ZINC000498646479    0.0900
     39 H39        -7.6004    3.4398   56.2404 H       1  ZINC000498646479    0.0500
     40 H40        -6.3528    3.0776   54.2598 H       1  ZINC000498646479    0.0400
     41 H41        -6.3659    1.5060   55.0966 H       1  ZINC000498646479    0.1000
     42 H42        -5.6391    1.3533   52.6810 H       1  ZINC000498646479    0.1000
     43 H43        -7.0801    0.3694   53.0501 H       1  ZINC000498646479    0.0800
     44 H44        -4.3072    0.3850   50.0104 H       1  ZINC000498646479    0.0700
     45 H45        -5.7994    0.0554   50.9232 H       1  ZINC000498646479    0.0600
     46 H46        -5.8879    0.4857   49.1983 H       1  ZINC000498646479    0.0700
     47 H47        -5.2289    2.5388   48.4019 H       1  ZINC000498646479    0.0900
     48 H48        -5.3633    3.9957   49.4157 H       1  ZINC000498646479    0.0800
     49 H49        -4.6185    4.6644   51.2733 H       1  ZINC000498646479    0.1400
     50 H50        -3.4375    6.0703   52.8772 H       1  ZINC000498646479    0.1300
     51 H51        -0.9826    6.1495   52.9156 H       1  ZINC000498646479    0.1300
     52 H52         0.3370    4.8242   51.3538 H       1  ZINC000498646479    0.1300
     53 H53         0.4003    3.1897   49.4611 H       1  ZINC000498646479    0.1600
     54 H54        -3.1272    1.7175   47.8414 H       1  ZINC000498646479    0.1500
     55 H55        -9.2411    3.1424   51.4927 H       1  ZINC000498646479    0.0900
     56 H56        -9.4568    1.5500   52.2660 H       1  ZINC000498646479    0.0800
     57 H57        -9.9595    3.2910   53.9110 H       1  ZINC000498646479    0.0900
     58 H58        -8.4067    4.0978   53.5822 H       1  ZINC000498646479    0.0400
@<TRIPOS>BOND
     1     1     2    1
     2     1    31    1
     3     1    32    1
     4     1    33    1
     5     2     3    1
     6     2    34    1
     7     2    35    1
     8     3    30    1
     9     3     4    2
    10     4     5    1
    11     4    36    1
    12     5     6    2
    13     5    37    1
    14     6     7    1
    15     6    30    1
    16     7     8    1
    17     7    38    1
    18     7    39    1
    19     8    29    1
    20     8     9    1
    21     9    10    1
    22     9    40    1
    23     9    41    1
    24    10    11    1
    25    10    42    1
    26    10    43    1
    27    11    12   am
    28    11    28    1
    29    12    13    2
    30    12    14    1
    31    14    15    1
    32    14    16    1
    33    14    17    1
    34    16    44    1
    35    16    45    1
    36    16    46    1
    37    17    18    1
    38    17    47    1
    39    17    48    1
    40    18    27   ar
    41    18    19   ar
    42    19    24   ar
    43    19    20   ar
    44    20    21   ar
    45    20    49    1
    46    21    22   ar
    47    21    50    1
    48    22    23   ar
    49    22    51    1
    50    23    24   ar
    51    23    52    1
    52    24    25   ar
    53    25    26   ar
    54    25    53    1
    55    26    27   ar
    56    27    54    1
    57    28    29    1
    58    28    55    1
    59    28    56    1
    60    29    57    1
    61    29    58    1
@<TRIPOS>SUBSTRUCTURE
     1 ZINC000498646479        1 TEMP              0 ****  ****    0 ROOT


##########                                Name:    ZINC000809503567
##########                DOCK_Rotatable_Bonds:                   9
##########                         Heavy_Atoms:                  26
##########                    Molecular_Weight:             353.378
##########                DOCK_Rotatable_Bonds:                   9
##########                       Formal_Charge:          -0.0200002
##########                     HBond_Acceptors:                   7
##########                        HBond_Donors:                   1
##########                         Heavy_Atoms:                  26
##########                          Grid_Score:          -32.931198
##########                     Grid_vdw_energy:          -32.084248
##########                      Grid_es_energy:           -0.846952
##########           Internal_energy_repulsive:           10.678883

@<TRIPOS>MOLECULE
ZINC000809503567
 45 46 1 0 0
SMALL
USER_CHARGES


@<TRIPOS>ATOM
      1 C1          2.0196    1.7248   50.8529 C.3     1  ZINC000809503567    0.0200
      2 O2          1.5269    2.7122   49.9449 O.3     1  ZINC000809503567   -0.3100
      3 C3          0.1881    2.7327   49.7240 C.ar    1  ZINC000809503567    0.1900
      4 C4         -0.6843    3.0198   50.7620 C.ar    1  ZINC000809503567   -0.2100
      5 C5         -2.0470    3.0402   50.5359 C.ar    1  ZINC000809503567   -0.0200
      6 C6         -2.5519    2.7743   49.2742 C.ar    1  ZINC000809503567   -0.1500
      7 C7         -4.0405    2.7994   49.0412 C.3     1  ZINC000809503567    0.1700
      8 N8         -4.6611    1.6622   49.7253 N.am    1  ZINC000809503567   -0.7000
      9 C9         -5.9994    1.6163   49.8780 C.2     1  ZINC000809503567    0.5100
     10 O10        -6.6902    2.5174   49.4501 O.2     1  ZINC000809503567   -0.4900
     11 C11        -6.6326    0.4553   50.5743 C.2     1  ZINC000809503567    0.5100
     12 O12        -6.9655   -0.5244   49.9404 O.2     1  ZINC000809503567   -0.5000
     13 N13        -6.8338    0.4965   51.9063 N.am    1  ZINC000809503567   -0.4600
     14 C14        -6.4302    1.6785   52.6719 C.3     1  ZINC000809503567    0.0800
     15 O15        -7.4352   -0.6029   52.5657 O.3     1  ZINC000809503567   -0.1100
     16 C16        -8.8395   -0.7243   52.3306 C.3     1  ZINC000809503567    0.0800
     17 C17        -9.5583    0.4343   52.9724 C.ar    1  ZINC000809503567   -0.0900
     18 C18        -9.1443    0.9084   54.2031 C.ar    1  ZINC000809503567   -0.1000
     19 C19        -9.8037    1.9713   54.7919 C.ar    1  ZINC000809503567   -0.1300
     20 C20       -10.8768    2.5603   54.1497 C.ar    1  ZINC000809503567   -0.1100
     21 C21       -11.2903    2.0867   52.9186 C.ar    1  ZINC000809503567   -0.1300
     22 C22       -10.6281    1.0266   52.3279 C.ar    1  ZINC000809503567   -0.0800
     23 C23        -1.6986    2.4872   48.2300 C.ar    1  ZINC000809503567   -0.0100
     24 C24        -0.3184    2.4690   48.4435 C.ar    1  ZINC000809503567   -0.0600
     25 C25         0.5736    2.1716   47.3635 C.1     1  ZINC000809503567    0.2600
     26 N26         1.2812    1.9356   46.5067 N.1     1  ZINC000809503567   -0.4100
     27 H27         1.7691    0.7315   50.4805 H       1  ZINC000809503567    0.0600
     28 H28         3.1023    1.8182   50.9388 H       1  ZINC000809503567    0.1100
     29 H29         1.5634    1.8716   51.8319 H       1  ZINC000809503567    0.0600
     30 H30        -0.2984    3.2275   51.7491 H       1  ZINC000809503567    0.1400
     31 H31        -2.7227    3.2645   51.3480 H       1  ZINC000809503567    0.1400
     32 H32        -4.4540    3.7288   49.4329 H       1  ZINC000809503567    0.0900
     33 H33        -4.2421    2.7342   47.9720 H       1  ZINC000809503567    0.0900
     34 H34        -4.1088    0.9424   50.0684 H       1  ZINC000809503567    0.4100
     35 H35        -7.2574    2.3873   52.7090 H       1  ZINC000809503567    0.0800
     36 H36        -6.1614    1.3806   53.6854 H       1  ZINC000809503567    0.0800
     37 H37        -5.5714    2.1470   52.1912 H       1  ZINC000809503567    0.0900
     38 H38        -9.0298   -0.7205   51.2574 H       1  ZINC000809503567    0.0700
     39 H39        -9.2004   -1.6588   52.7603 H       1  ZINC000809503567    0.0600
     40 H40        -8.3059    0.4484   54.7048 H       1  ZINC000809503567    0.1200
     41 H41        -9.4806    2.3413   55.7537 H       1  ZINC000809503567    0.1200
     42 H42       -11.3924    3.3901   54.6099 H       1  ZINC000809503567    0.1200
     43 H43       -12.1289    2.5466   52.4170 H       1  ZINC000809503567    0.1200
     44 H44       -10.9512    0.6566   51.3660 H       1  ZINC000809503567    0.1300
     45 H45        -2.0966    2.2805   47.2476 H       1  ZINC000809503567    0.1400
@<TRIPOS>BOND
     1     1     2    1
     2     1    27    1
     3     1    28    1
     4     1    29    1
     5     2     3    1
     6     3    24   ar
     7     3     4   ar
     8     4     5   ar
     9     4    30    1
    10     5     6   ar
    11     5    31    1
    12     6     7    1
    13     6    23   ar
    14     7     8    1
    15     7    32    1
    16     7    33    1
    17     8     9   am
    18     8    34    1
    19     9    10    2
    20     9    11    1
    21    11    12    2
    22    11    13   am
    23    13    14    1
    24    13    15    1
    25    14    35    1
    26    14    36    1
    27    14    37    1
    28    15    16    1
    29    16    17    1
    30    16    38    1
    31    16    39    1
    32    17    22   ar
    33    17    18   ar
    34    18    19   ar
    35    18    40    1
    36    19    20   ar
    37    19    41    1
    38    20    21   ar
    39    20    42    1
    40    21    22   ar
    41    21    43    1
    42    22    44    1
    43    23    24   ar
    44    23    45    1
    45    24    25    1
    46    25    26    3
@<TRIPOS>SUBSTRUCTURE
     1 ZINC000809503567        1 TEMP              0 ****  ****    0 ROOT


##########                                Name:    ZINC001207290212
##########                DOCK_Rotatable_Bonds:                   8
##########                         Heavy_Atoms:                  23
##########                    Molecular_Weight:             344.435
##########                DOCK_Rotatable_Bonds:                   8
##########                       Formal_Charge:               -0.03
##########                     HBond_Acceptors:                   9
##########                        HBond_Donors:                   2
##########                         Heavy_Atoms:                  23
##########                          Grid_Score:          -32.904957
##########                     Grid_vdw_energy:          -30.752113
##########                      Grid_es_energy:           -2.152845
##########           Internal_energy_repulsive:            4.660180

@<TRIPOS>MOLECULE
ZINC001207290212
 47 48 1 0 0
SMALL
USER_CHARGES


@<TRIPOS>ATOM
      1 C1          0.6686    2.1374   59.2219 C.3     1  ZINC001207290212   -0.1500
      2 C2          0.1796    2.2060   57.7737 C.3     1  ZINC001207290212   -0.6300
      3 S3          0.5523    3.8428   57.0865 S.o2    1  ZINC001207290212    2.6100
      4 O4         -0.3010    4.8277   57.6531 O.2     1  ZINC001207290212   -0.9500
      5 O5          1.9571    4.0450   57.0136 O.2     1  ZINC001207290212   -0.9500
      6 N6          0.0711    3.7465   55.5050 N.am    1  ZINC001207290212   -1.1100
      7 C7         -1.3268    3.4508   55.1814 C.3     1  ZINC001207290212    0.0900
      8 C8         -1.6300    3.9251   53.7834 C.2     1  ZINC001207290212    0.5100
      9 O9         -2.1017    5.0283   53.6063 O.2     1  ZINC001207290212   -0.5300
     10 N10        -1.3770    3.1233   52.7301 N.am    1  ZINC001207290212   -0.7200
     11 C11        -1.6701    3.5850   51.3710 C.3     1  ZINC001207290212    0.1400
     12 H12        -1.5501    4.6664   51.3054 H       1  ZINC001207290212    0.1000
     13 C13        -3.0997    3.1806   50.9657 C.3     1  ZINC001207290212    0.0200
     14 N14        -2.9808    2.2719   49.8048 N.3     1  ZINC001207290212   -0.5100
     15 C15        -4.1044    2.4545   48.8762 C.3     1  ZINC001207290212    0.1300
     16 C16        -5.3879    2.0513   49.5552 C.2     1  ZINC001207290212    0.0000
     17 C17        -6.5929    2.6156   49.3717 C.2     1  ZINC001207290212   -0.0700
     18 O18        -7.4628    1.9599   50.1648 O.3     1  ZINC001207290212   -0.2000
     19 C19        -6.7826    1.0091   50.8189 C.2     1  ZINC001207290212    0.1900
     20 C20        -7.3665    0.0384   51.8128 C.3     1  ZINC001207290212   -0.0600
     21 N21        -5.5344    1.0579   50.4497 N.2     1  ZINC001207290212   -0.4700
     22 C22        -1.6906    2.6140   49.1532 C.3     1  ZINC001207290212    0.0400
     23 C23        -0.7446    2.8795   50.3533 C.3     1  ZINC001207290212   -0.1000
     24 H24        -0.3675    1.9420   50.7619 H       1  ZINC001207290212    0.0900
     25 C25         0.4119    3.7917   49.9396 C.3     1  ZINC001207290212   -0.1400
     26 H26         1.7450    2.3068   59.2503 H       1  ZINC001207290212    0.0700
     27 H27         0.1646    2.9026   59.8121 H       1  ZINC001207290212    0.0700
     28 H28         0.4445    1.1538   59.6348 H       1  ZINC001207290212    0.0800
     29 H29         0.6836    1.4407   57.1834 H       1  ZINC001207290212    0.1300
     30 H30        -0.8968    2.0366   57.7452 H       1  ZINC001207290212    0.1300
     31 H31         0.7148    3.8857   54.7927 H       1  ZINC001207290212    0.4300
     32 H32        -1.4949    2.3757   55.2448 H       1  ZINC001207290212    0.1000
     33 H33        -1.9795    3.9630   55.8884 H       1  ZINC001207290212    0.1100
     34 H34        -1.0009    2.2405   52.8719 H       1  ZINC001207290212    0.4100
     35 H35        -3.5881    2.6647   51.7925 H       1  ZINC001207290212    0.0800
     36 H36        -3.6713    4.0659   50.6873 H       1  ZINC001207290212    0.0500
     37 H37        -4.1638    3.5015   48.5792 H       1  ZINC001207290212    0.0600
     38 H38        -3.9502    1.8345   47.9930 H       1  ZINC001207290212    0.1000
     39 H39        -6.8216    3.4401   48.7126 H       1  ZINC001207290212    0.2100
     40 H40        -8.4345    0.2276   51.9210 H       1  ZINC001207290212    0.0900
     41 H41        -7.2122   -0.9810   51.4589 H       1  ZINC001207290212    0.1000
     42 H42        -6.8752    0.1663   52.7774 H       1  ZINC001207290212    0.1000
     43 H43        -1.3283    1.7782   48.5549 H       1  ZINC001207290212    0.0900
     44 H44        -1.7945    3.5101   48.5413 H       1  ZINC001207290212    0.0500
     45 H45         0.0144    4.7341   49.5625 H       1  ZINC001207290212    0.0600
     46 H46         1.0485    3.9855   50.8029 H       1  ZINC001207290212    0.0600
     47 H47         0.9967    3.3055   49.1587 H       1  ZINC001207290212    0.0600
@<TRIPOS>BOND
     1     1     2    1
     2     1    26    1
     3     1    27    1
     4     1    28    1
     5     2     3    1
     6     2    29    1
     7     2    30    1
     8     3     4    2
     9     3     5    2
    10     3     6   am
    11     6     7    1
    12     6    31    1
    13     7     8    1
    14     7    32    1
    15     7    33    1
    16     8     9    2
    17     8    10   am
    18    10    11    1
    19    10    34    1
    20    11    12    1
    21    11    23    1
    22    11    13    1
    23    13    14    1
    24    13    35    1
    25    13    36    1
    26    14    15    1
    27    14    22    1
    28    15    16    1
    29    15    37    1
    30    15    38    1
    31    16    21    1
    32    16    17    2
    33    17    18    1
    34    17    39    1
    35    18    19    1
    36    19    20    1
    37    19    21    2
    38    20    40    1
    39    20    41    1
    40    20    42    1
    41    22    23    1
    42    22    43    1
    43    22    44    1
    44    23    24    1
    45    23    25    1
    46    25    45    1
    47    25    46    1
    48    25    47    1
@<TRIPOS>SUBSTRUCTURE
     1 ZINC001207290212        1 TEMP              0 ****  ****    0 ROOT


##########                                Name:    ZINC000821177065
##########                DOCK_Rotatable_Bonds:                  10
##########                         Heavy_Atoms:                  25
##########                    Molecular_Weight:             341.413
##########                DOCK_Rotatable_Bonds:                  10
##########                       Formal_Charge:          0.00999917
##########                     HBond_Acceptors:                   7
##########                        HBond_Donors:                   3
##########                         Heavy_Atoms:                  25
##########                          Grid_Score:          -32.892052
##########                     Grid_vdw_energy:          -31.617544
##########                      Grid_es_energy:           -1.274506
##########           Internal_energy_repulsive:           12.429535

@<TRIPOS>MOLECULE
ZINC000821177065
 48 51 1 0 0
SMALL
USER_CHARGES


@<TRIPOS>ATOM
      1 O1         -8.4818    0.5025   54.8411 O.2     1  ZINC000821177065   -0.5600
      2 C2         -9.3419   -0.2429   54.4133 C.2     1  ZINC000821177065    0.7100
      3 N3        -10.2491   -0.7780   55.2542 N.am    1  ZINC000821177065   -0.7300
      4 C4        -10.1953   -0.4662   56.6846 C.3     1  ZINC000821177065    0.1200
      5 C5        -11.2229   -1.3190   57.4315 C.3     1  ZINC000821177065    0.1900
      6 O6        -10.8142   -2.6880   57.4065 O.3     1  ZINC000821177065   -0.5400
      7 C7        -11.3231   -0.8429   58.8820 C.3     1  ZINC000821177065   -0.1500
      8 C8        -11.4460   -1.9121   59.9696 C.3     1  ZINC000821177065   -0.1600
      9 C9        -10.1382   -1.1352   59.8049 C.3     1  ZINC000821177065   -0.1700
     10 C10       -12.5881   -1.1818   56.7543 C.3     1  ZINC000821177065   -0.1800
     11 C11       -13.1586   -2.4186   56.0577 C.3     1  ZINC000821177065   -0.1900
     12 C12       -13.7646   -1.9362   57.3771 C.3     1  ZINC000821177065   -0.1700
     13 N13        -9.3914   -0.5297   53.0974 N.am    1  ZINC000821177065   -0.6500
     14 C14        -8.4477    0.0269   52.2226 C.2     1  ZINC000821177065    0.3200
     15 N15        -7.3401   -0.5476   51.8167 N.2     1  ZINC000821177065   -0.3200
     16 N16        -6.6798    0.3370   50.9544 N.pl3   1  ZINC000821177065   -0.3600
     17 C17        -5.4045    0.0882   50.2778 C.3     1  ZINC000821177065    0.1900
     18 C18        -4.5308    1.3112   50.3874 C.ar    1  ZINC000821177065    0.1100
     19 C19        -4.3529    1.9155   51.6172 C.ar    1  ZINC000821177065   -0.1500
     20 C20        -3.5466    3.0401   51.7073 C.ar    1  ZINC000821177065   -0.0700
     21 C21        -2.9470    3.5163   50.5517 C.ar    1  ZINC000821177065   -0.1700
     22 C22        -3.1712    2.8590   49.3566 C.ar    1  ZINC000821177065    0.1000
     23 N23        -3.9403    1.7891   49.3092 N.ar    1  ZINC000821177065   -0.4700
     24 C24        -7.4244    1.4584   50.8554 C.2     1  ZINC000821177065    0.0700
     25 C25        -8.5256    1.2941   51.6231 C.2     1  ZINC000821177065   -0.2600
     26 H26       -10.9377   -1.3694   54.9123 H       1  ZINC000821177065    0.4000
     27 H27        -9.1975   -0.6825   57.0664 H       1  ZINC000821177065    0.0700
     28 H28       -10.4210    0.5895   56.8352 H       1  ZINC000821177065    0.0800
     29 H29        -9.9202   -2.8379   57.7431 H       1  ZINC000821177065    0.3800
     30 H30       -11.8599    0.0936   59.0335 H       1  ZINC000821177065    0.1100
     31 H31       -12.0639   -1.6792   60.8368 H       1  ZINC000821177065    0.0900
     32 H32       -11.4555   -2.9546   59.6516 H       1  ZINC000821177065    0.1100
     33 H33        -9.2874   -1.6666   59.3785 H       1  ZINC000821177065    0.1000
     34 H34        -9.8958   -0.3912   60.5637 H       1  ZINC000821177065    0.0900
     35 H35       -12.7944   -0.2105   56.3048 H       1  ZINC000821177065    0.1100
     36 H36       -13.7403   -2.2613   55.1494 H       1  ZINC000821177065    0.1000
     37 H37       -12.5614   -3.3302   56.0816 H       1  ZINC000821177065    0.1100
     38 H38       -13.5660   -2.5302   58.2691 H       1  ZINC000821177065    0.0900
     39 H39       -14.7449   -1.4613   57.3369 H       1  ZINC000821177065    0.1000
     40 H40       -10.0800   -1.1212   52.7555 H       1  ZINC000821177065    0.4100
     41 H41        -4.9038   -0.7591   50.7463 H       1  ZINC000821177065    0.1000
     42 H42        -5.5882   -0.1341   49.2266 H       1  ZINC000821177065    0.1200
     43 H43        -4.8362    1.5173   52.4972 H       1  ZINC000821177065    0.1400
     44 H44        -3.3897    3.5335   52.6552 H       1  ZINC000821177065    0.1400
     45 H45        -2.3130    4.3900   50.5846 H       1  ZINC000821177065    0.1400
     46 H46        -2.7081    3.2239   48.4517 H       1  ZINC000821177065    0.1600
     47 H47        -7.1855    2.3301   50.2645 H       1  ZINC000821177065    0.1800
     48 H48        -9.3204    2.0131   51.7570 H       1  ZINC000821177065    0.1700
@<TRIPOS>BOND
     1     1     2    2
     2     2     3   am
     3     2    13   am
     4     3     4    1
     5     3    26    1
     6     4     5    1
     7     4    27    1
     8     4    28    1
     9     5     6    1
    10     5     7    1
    11     5    10    1
    12     6    29    1
    13     7     9    1
    14     7     8    1
    15     7    30    1
    16     8     9    1
    17     8    31    1
    18     8    32    1
    19     9    33    1
    20     9    34    1
    21    10    12    1
    22    10    11    1
    23    10    35    1
    24    11    12    1
    25    11    36    1
    26    11    37    1
    27    12    38    1
    28    12    39    1
    29    13    14    1
    30    13    40    1
    31    14    25    1
    32    14    15    2
    33    15    16    1
    34    16    17    1
    35    16    24    1
    36    17    18    1
    37    17    41    1
    38    17    42    1
    39    18    23   ar
    40    18    19   ar
    41    19    20   ar
    42    19    43    1
    43    20    21   ar
    44    20    44    1
    45    21    22   ar
    46    21    45    1
    47    22    23   ar
    48    22    46    1
    49    24    25    2
    50    24    47    1
    51    25    48    1
@<TRIPOS>SUBSTRUCTURE
     1 ZINC000821177065        1 TEMP              0 ****  ****    0 ROOT


##########                                Name:    ZINC000132775118
##########                DOCK_Rotatable_Bonds:                   5
##########                         Heavy_Atoms:                  27
##########                    Molecular_Weight:             376.499
##########                DOCK_Rotatable_Bonds:                   5
##########                       Formal_Charge:        -4.76837e-07
##########                     HBond_Acceptors:                   7
##########                        HBond_Donors:                   1
##########                         Heavy_Atoms:                  27
##########                          Grid_Score:          -32.853420
##########                     Grid_vdw_energy:          -32.827160
##########                      Grid_es_energy:           -0.026260
##########           Internal_energy_repulsive:           23.375412

@<TRIPOS>MOLECULE
ZINC000132775118
 59 62 1 0 0
SMALL
USER_CHARGES


@<TRIPOS>ATOM
      1 O1        -10.0693    3.7869   53.8371 O.2     1  ZINC000132775118   -0.5200
      2 C2         -8.9047    3.6148   54.1287 C.2     1  ZINC000132775118    0.5200
      3 C3         -7.8593    3.5434   53.0456 C.3     1  ZINC000132775118    0.0300
      4 N4         -7.4546    2.1454   52.8470 N.3     1  ZINC000132775118   -0.5100
      5 C5         -8.5845    1.2324   53.0741 C.3     1  ZINC000132775118    0.0300
      6 C6         -8.2266   -0.1662   52.6613 C.2     1  ZINC000132775118    0.5300
      7 O7         -8.9297   -1.0779   53.0425 O.2     1  ZINC000132775118   -0.5500
      8 N8         -7.1685   -0.4557   51.8919 N.am    1  ZINC000132775118   -0.7200
      9 C9         -6.2349    0.5699   51.4474 C.3     1  ZINC000132775118    0.1500
     10 H10        -5.3717    0.5751   52.1129 H       1  ZINC000132775118    0.0800
     11 C11        -5.7582    0.3153   50.0192 C.3     1  ZINC000132775118   -0.1300
     12 C12        -4.7351    1.3907   49.6394 C.3     1  ZINC000132775118   -0.1200
     13 C13        -5.3723    2.7768   49.7406 C.3     1  ZINC000132775118   -0.1200
     14 C14        -5.8772    3.0183   51.1667 C.3     1  ZINC000132775118   -0.1200
     15 C15        -6.9107    1.9417   51.4996 C.3     1  ZINC000132775118    0.0700
     16 H16        -7.7266    1.9880   50.7784 H       1  ZINC000132775118    0.0600
     17 N17        -8.5448    3.4930   55.4218 N.am    1  ZINC000132775118   -0.6200
     18 C18        -9.5533    3.5545   56.4885 C.3     1  ZINC000132775118    0.1100
     19 C19        -9.4183    2.3068   57.3672 C.3     1  ZINC000132775118   -0.1200
     20 C20        -7.9773    2.1956   57.8702 C.3     1  ZINC000132775118   -0.1000
     21 C21        -7.8488    0.9880   58.7626 C.2     1  ZINC000132775118    0.5300
     22 O22        -7.5638   -0.0904   58.2864 O.2     1  ZINC000132775118   -0.5300
     23 N23        -8.0507    1.1064   60.0899 N.am    1  ZINC000132775118   -0.6200
     24 C24        -7.9518    0.0170   61.0722 C.3     1  ZINC000132775118    0.1000
     25 C25        -8.2892    0.6144   62.4546 C.3     1  ZINC000132775118   -0.1300
     26 C26        -9.1107    1.8805   62.0948 C.3     1  ZINC000132775118   -0.1300
     27 C27        -8.4009    2.3511   60.7981 C.3     1  ZINC000132775118    0.1000
     28 C28        -7.0286    2.0517   56.6780 C.3     1  ZINC000132775118   -0.1200
     29 C29        -7.1373    3.2903   55.7912 C.3     1  ZINC000132775118    0.1200
     30 H30        -8.2710    3.9380   52.1167 H       1  ZINC000132775118    0.0700
     31 H31        -6.9917    4.1348   53.3386 H       1  ZINC000132775118    0.1200
     32 H32        -8.8446    1.2391   54.1326 H       1  ZINC000132775118    0.1300
     33 H33        -9.4419    1.5705   52.4922 H       1  ZINC000132775118    0.0700
     34 H34        -7.0197   -1.3759   51.6231 H       1  ZINC000132775118    0.4000
     35 H35        -5.2929   -0.6686   49.9595 H       1  ZINC000132775118    0.0800
     36 H36        -6.6071    0.3617   49.3371 H       1  ZINC000132775118    0.0700
     37 H37        -3.8825    1.3342   50.3162 H       1  ZINC000132775118    0.0700
     38 H38        -4.3956    1.2223   48.6174 H       1  ZINC000132775118    0.0700
     39 H39        -4.6318    3.5349   49.4857 H       1  ZINC000132775118    0.0700
     40 H40        -6.2088    2.8421   49.0447 H       1  ZINC000132775118    0.0600
     41 H41        -5.0412    2.9641   51.8640 H       1  ZINC000132775118    0.0800
     42 H42        -6.3426    4.0021   51.2275 H       1  ZINC000132775118    0.0700
     43 H43        -9.3914    4.4467   57.0934 H       1  ZINC000132775118    0.0800
     44 H44       -10.5498    3.5850   56.0479 H       1  ZINC000132775118    0.0900
     45 H45       -10.0954    2.3858   58.2176 H       1  ZINC000132775118    0.0800
     46 H46        -9.6690    1.4215   56.7828 H       1  ZINC000132775118    0.0800
     47 H47        -7.7190    3.0924   58.4334 H       1  ZINC000132775118    0.0900
     48 H48        -8.6636   -0.7707   60.8250 H       1  ZINC000132775118    0.0700
     49 H49        -6.9387   -0.3849   61.0794 H       1  ZINC000132775118    0.0700
     50 H50        -8.8902   -0.0819   63.0393 H       1  ZINC000132775118    0.0800
     51 H51        -7.3793    0.8845   62.9905 H       1  ZINC000132775118    0.0800
     52 H52       -10.1537    1.6283   61.9038 H       1  ZINC000132775118    0.0800
     53 H53        -9.0297    2.6344   62.8779 H       1  ZINC000132775118    0.0900
     54 H54        -7.5040    2.9205   61.0418 H       1  ZINC000132775118    0.0700
     55 H55        -9.0789    2.9510   60.1910 H       1  ZINC000132775118    0.0800
     56 H56        -6.0048    1.9491   57.0379 H       1  ZINC000132775118    0.0800
     57 H57        -7.3018    1.1687   56.1002 H       1  ZINC000132775118    0.0800
     58 H58        -6.5386    3.1492   54.8913 H       1  ZINC000132775118    0.1000
     59 H59        -6.7796    4.1632   56.3373 H       1  ZINC000132775118    0.0700
@<TRIPOS>BOND
     1     1     2    2
     2     2     3    1
     3     2    17   am
     4     3     4    1
     5     3    30    1
     6     3    31    1
     7     4    15    1
     8     4     5    1
     9     5     6    1
    10     5    32    1
    11     5    33    1
    12     6     7    2
    13     6     8   am
    14     8     9    1
    15     8    34    1
    16     9    10    1
    17     9    15    1
    18     9    11    1
    19    11    12    1
    20    11    35    1
    21    11    36    1
    22    12    13    1
    23    12    37    1
    24    12    38    1
    25    13    14    1
    26    13    39    1
    27    13    40    1
    28    14    15    1
    29    14    41    1
    30    14    42    1
    31    15    16    1
    32    17    29    1
    33    17    18    1
    34    18    19    1
    35    18    43    1
    36    18    44    1
    37    19    20    1
    38    19    45    1
    39    19    46    1
    40    20    21    1
    41    20    28    1
    42    20    47    1
    43    21    22    2
    44    21    23   am
    45    23    27    1
    46    23    24    1
    47    24    25    1
    48    24    48    1
    49    24    49    1
    50    25    26    1
    51    25    50    1
    52    25    51    1
    53    26    27    1
    54    26    52    1
    55    26    53    1
    56    27    54    1
    57    27    55    1
    58    28    29    1
    59    28    56    1
    60    28    57    1
    61    29    58    1
    62    29    59    1
@<TRIPOS>SUBSTRUCTURE
     1 ZINC000132775118        1 TEMP              0 ****  ****    0 ROOT


##########                                Name:    ZINC001053792610
##########                DOCK_Rotatable_Bonds:                   5
##########                         Heavy_Atoms:                  25
##########                    Molecular_Weight:             347.374
##########                DOCK_Rotatable_Bonds:                   5
##########                       Formal_Charge:          -0.0400001
##########                     HBond_Acceptors:                   9
##########                        HBond_Donors:                   2
##########                         Heavy_Atoms:                  25
##########                          Grid_Score:          -32.848362
##########                     Grid_vdw_energy:          -31.741108
##########                      Grid_es_energy:           -1.107253
##########           Internal_energy_repulsive:            5.280772

@<TRIPOS>MOLECULE
ZINC001053792610
 46 49 1 0 0
SMALL
USER_CHARGES


@<TRIPOS>ATOM
      1 C1         -7.7320   -0.2216   59.6981 C.3     1  ZINC001053792610   -0.1000
      2 C2         -7.9242    0.3739   58.3271 C.ar    1  ZINC001053792610    0.0800
      3 C3         -8.9761   -0.0451   57.5321 C.ar    1  ZINC001053792610    0.0600
      4 N4         -9.1446    0.4770   56.3299 N.ar    1  ZINC001053792610   -0.4200
      5 C5         -8.3085    1.3993   55.8871 C.ar    1  ZINC001053792610    0.0800
      6 C6         -8.5009    1.9951   54.5163 C.3     1  ZINC001053792610    0.0700
      7 N7         -7.6745    1.2659   53.5450 N.3     1  ZINC001053792610   -0.4500
      8 C8         -6.5894    2.1216   53.0258 C.3     1  ZINC001053792610   -0.0100
      9 C9         -6.8784    1.5442   51.6416 C.3     1  ZINC001053792610    0.0800
     10 C10        -8.2802    1.3062   52.1994 C.3     1  ZINC001053792610   -0.0100
     11 C11        -6.7966    2.5502   50.4828 C.3     1  ZINC001053792610   -0.1500
     12 C12        -5.5315    2.0632   49.7216 C.3     1  ZINC001053792610    0.1100
     13 H13        -5.5943    2.3053   48.6606 H       1  ZINC001053792610    0.1200
     14 N14        -4.3124    2.6183   50.3148 N.am    1  ZINC001053792610   -0.7100
     15 C15        -3.2213    2.8186   49.5495 C.2     1  ZINC001053792610    0.5000
     16 O16        -3.2491    2.5406   48.3692 O.2     1  ZINC001053792610   -0.5100
     17 C17        -1.9668    3.3880   50.1602 C.3     1  ZINC001053792610    0.0800
     18 H18        -2.0131    4.4767   50.1826 H       1  ZINC001053792610    0.1300
     19 C19        -1.7522    2.8260   51.5789 C.3     1  ZINC001053792610    0.0500
     20 O20        -0.4800    2.1213   51.4903 O.3     1  ZINC001053792610   -0.3200
     21 C21         0.0032    2.2273   50.2474 C.2     1  ZINC001053792610    0.6500
     22 O22         1.0552    1.7284   49.9002 O.2     1  ZINC001053792610   -0.5100
     23 N23        -0.7799    2.9365   49.4179 N.am    1  ZINC001053792610   -0.7100
     24 C24        -5.6179    0.5325   49.9508 C.3     1  ZINC001053792610    0.0400
     25 O25        -6.1411    0.3799   51.2826 O.3     1  ZINC001053792610   -0.3300
     26 C26        -7.2563    1.8184   56.6822 C.ar    1  ZINC001053792610    0.0600
     27 N27        -7.0910    1.3002   57.8864 N.ar    1  ZINC001053792610   -0.4400
     28 H28        -8.2860    0.3658   60.4303 H       1  ZINC001053792610    0.0800
     29 H29        -8.0990   -1.2480   59.7031 H       1  ZINC001053792610    0.0800
     30 H30        -6.6722   -0.2134   59.9525 H       1  ZINC001053792610    0.0800
     31 H31        -9.6593   -0.7992   57.8940 H       1  ZINC001053792610    0.1700
     32 H32        -9.5501    1.9183   54.2308 H       1  ZINC001053792610    0.1000
     33 H33        -8.2042    3.0438   54.5310 H       1  ZINC001053792610    0.0600
     34 H34        -6.8010    3.1879   53.1049 H       1  ZINC001053792610    0.0800
     35 H35        -5.6047    1.8563   53.4106 H       1  ZINC001053792610    0.0900
     36 H36        -8.7157    0.3561   51.8900 H       1  ZINC001053792610    0.1000
     37 H37        -8.9557    2.1488   52.0517 H       1  ZINC001053792610    0.0800
     38 H38        -7.6811    2.4867   49.8490 H       1  ZINC001053792610    0.1000
     39 H39        -6.6595    3.5647   50.8570 H       1  ZINC001053792610    0.1000
     40 H40        -4.2907    2.8418   51.2585 H       1  ZINC001053792610    0.4000
     41 H41        -1.6904    3.6362   52.3054 H       1  ZINC001053792610    0.1200
     42 H42        -2.5539    2.1359   51.8419 H       1  ZINC001053792610    0.1100
     43 H43        -0.5933    3.1177   48.4833 H       1  ZINC001053792610    0.4400
     44 H44        -6.2929    0.0789   49.2251 H       1  ZINC001053792610    0.0800
     45 H45        -4.6275    0.0829   49.8798 H       1  ZINC001053792610    0.0900
     46 H46        -6.5728    2.5722   56.3203 H       1  ZINC001053792610    0.1600
@<TRIPOS>BOND
     1     1     2    1
     2     1    28    1
     3     1    29    1
     4     1    30    1
     5     2    27   ar
     6     2     3   ar
     7     3     4   ar
     8     3    31    1
     9     4     5   ar
    10     5     6    1
    11     5    26   ar
    12     6     7    1
    13     6    32    1
    14     6    33    1
    15     7    10    1
    16     7     8    1
    17     8     9    1
    18     8    34    1
    19     8    35    1
    20     9    25    1
    21     9    10    1
    22     9    11    1
    23    10    36    1
    24    10    37    1
    25    11    12    1
    26    11    38    1
    27    11    39    1
    28    12    13    1
    29    12    14    1
    30    12    24    1
    31    14    15   am
    32    14    40    1
    33    15    16    2
    34    15    17    1
    35    17    18    1
    36    17    23    1
    37    17    19    1
    38    19    20    1
    39    19    41    1
    40    19    42    1
    41    20    21    1
    42    21    22    2
    43    21    23   am
    44    23    43    1
    45    24    25    1
    46    24    44    1
    47    24    45    1
    48    26    27   ar
    49    26    46    1
@<TRIPOS>SUBSTRUCTURE
     1 ZINC001053792610        1 TEMP              0 ****  ****    0 ROOT


##########                                Name:    ZINC001058079801
##########                DOCK_Rotatable_Bonds:                   7
##########                         Heavy_Atoms:                  24
##########                    Molecular_Weight:             349.457
##########                DOCK_Rotatable_Bonds:                   7
##########                       Formal_Charge:           0.0200001
##########                     HBond_Acceptors:                   8
##########                        HBond_Donors:                   0
##########                         Heavy_Atoms:                  24
##########                          Grid_Score:          -32.820690
##########                     Grid_vdw_energy:          -31.352812
##########                      Grid_es_energy:           -1.467877
##########           Internal_energy_repulsive:           17.810677

@<TRIPOS>MOLECULE
ZINC001058079801
 47 49 1 0 0
SMALL
USER_CHARGES


@<TRIPOS>ATOM
      1 C1          1.3288    2.9263   46.7019 C.3     1  ZINC001058079801   -0.1500
      2 C2          0.5915    1.6653   47.1572 C.3     1  ZINC001058079801   -0.1200
      3 C3         -0.8980    1.8013   46.8351 C.3     1  ZINC001058079801   -0.0300
      4 C4         -1.6479    2.1930   48.0822 C.2     1  ZINC001058079801    0.2900
      5 N5         -1.1642    3.0754   48.9073 N.2     1  ZINC001058079801   -0.4800
      6 S6         -2.3089    3.2169   50.1554 S.3     1  ZINC001058079801    0.1900
      7 C7         -3.3915    2.0586   49.4809 C.2     1  ZINC001058079801    0.2700
      8 N8         -4.6070    1.6431   49.9939 N.3     1  ZINC001058079801   -0.4300
      9 C9         -5.6952    2.5217   49.5464 C.3     1  ZINC001058079801    0.0700
     10 C10        -7.0370    1.9511   50.0109 C.3     1  ZINC001058079801   -0.1300
     11 C11        -7.0387    1.8428   51.5384 C.3     1  ZINC001058079801    0.1300
     12 N12        -8.2984    1.2429   51.9851 N.am    1  ZINC001058079801   -0.6100
     13 C13        -8.4720   -0.2111   51.9456 C.3     1  ZINC001058079801    0.0700
     14 C14        -9.2977    2.0289   52.4327 C.2     1  ZINC001058079801    0.5200
     15 O15        -9.1535    3.2326   52.4670 O.2     1  ZINC001058079801   -0.5300
     16 C16       -10.5941    1.4120   52.8907 C.3     1  ZINC001058079801   -0.0600
     17 C17       -10.3719    0.6830   54.1907 C.2     1  ZINC001058079801   -0.1900
     18 C18       -10.9726   -0.4509   54.6243 C.2     1  ZINC001058079801   -0.0400
     19 O19       -10.4541   -0.7172   55.8314 O.3     1  ZINC001058079801    0.1000
     20 N20        -9.6337    0.1100   56.1553 N.2     1  ZINC001058079801   -0.3600
     21 C21        -9.4835    1.0209   55.2375 C.2     1  ZINC001058079801    0.0000
     22 C22        -5.8671    0.9619   51.9810 C.3     1  ZINC001058079801   -0.1200
     23 C23        -4.5592    1.5612   51.4593 C.3     1  ZINC001058079801    0.0400
     24 N24        -2.8128    1.6591   48.3681 N.2     1  ZINC001058079801   -0.5300
     25 H25         2.3900    2.8296   46.9314 H       1  ZINC001058079801    0.0600
     26 H26         1.1997    3.0546   45.6272 H       1  ZINC001058079801    0.0600
     27 H27         0.9220    3.7931   47.2227 H       1  ZINC001058079801    0.0600
     28 H28         0.9983    0.7985   46.6364 H       1  ZINC001058079801    0.0700
     29 H29         0.7206    1.5371   48.2319 H       1  ZINC001058079801    0.0700
     30 H30        -1.0364    2.5674   46.0722 H       1  ZINC001058079801    0.1000
     31 H31        -1.2785    0.8486   46.4666 H       1  ZINC001058079801    0.0900
     32 H32        -5.5568    3.5161   49.9708 H       1  ZINC001058079801    0.0600
     33 H33        -5.6852    2.5867   48.4585 H       1  ZINC001058079801    0.1000
     34 H34        -7.8433    2.6116   49.6921 H       1  ZINC001058079801    0.0800
     35 H35        -7.1823    0.9623   49.5759 H       1  ZINC001058079801    0.0800
     36 H36        -6.9337    2.8364   51.9740 H       1  ZINC001058079801    0.1000
     37 H37        -8.1426   -0.6423   52.8909 H       1  ZINC001058079801    0.0600
     38 H38        -9.5240   -0.4474   51.7854 H       1  ZINC001058079801    0.0800
     39 H39        -7.8784   -0.6259   51.1308 H       1  ZINC001058079801    0.0800
     40 H40       -11.3379    2.1955   53.0360 H       1  ZINC001058079801    0.1100
     41 H41       -10.9488    0.7098   52.1363 H       1  ZINC001058079801    0.1100
     42 H42       -11.7214   -1.0266   54.1010 H       1  ZINC001058079801    0.2200
     43 H43        -8.8173    1.8703   55.2719 H       1  ZINC001058079801    0.1900
     44 H44        -5.8376    0.9158   53.0697 H       1  ZINC001058079801    0.0900
     45 H45        -5.9939   -0.0424   51.5769 H       1  ZINC001058079801    0.0800
     46 H46        -3.7242    0.9286   51.7608 H       1  ZINC001058079801    0.1000
     47 H47        -4.4263    2.5601   51.8748 H       1  ZINC001058079801    0.0700
@<TRIPOS>BOND
     1     1     2    1
     2     1    25    1
     3     1    26    1
     4     1    27    1
     5     2     3    1
     6     2    28    1
     7     2    29    1
     8     3     4    1
     9     3    30    1
    10     3    31    1
    11     4    24    1
    12     4     5    2
    13     5     6    1
    14     6     7    1
    15     7     8    1
    16     7    24    2
    17     8    23    1
    18     8     9    1
    19     9    10    1
    20     9    32    1
    21     9    33    1
    22    10    11    1
    23    10    34    1
    24    10    35    1
    25    11    12    1
    26    11    22    1
    27    11    36    1
    28    12    13    1
    29    12    14   am
    30    13    37    1
    31    13    38    1
    32    13    39    1
    33    14    15    2
    34    14    16    1
    35    16    17    1
    36    16    40    1
    37    16    41    1
    38    17    21    1
    39    17    18    2
    40    18    19    1
    41    18    42    1
    42    19    20    1
    43    20    21    2
    44    21    43    1
    45    22    23    1
    46    22    44    1
    47    22    45    1
    48    23    46    1
    49    23    47    1
@<TRIPOS>SUBSTRUCTURE
     1 ZINC001058079801        1 TEMP              0 ****  ****    0 ROOT


##########                                Name:    ZINC000744839011
##########                DOCK_Rotatable_Bonds:                  10
##########                         Heavy_Atoms:                  24
##########                    Molecular_Weight:              378.83
##########                DOCK_Rotatable_Bonds:                  10
##########                       Formal_Charge:           0.0300002
##########                     HBond_Acceptors:                   9
##########                        HBond_Donors:                   0
##########                         Heavy_Atoms:                  24
##########                          Grid_Score:          -32.818436
##########                     Grid_vdw_energy:          -32.104717
##########                      Grid_es_energy:           -0.713718
##########           Internal_energy_repulsive:            9.020883

@<TRIPOS>MOLECULE
ZINC000744839011
 43 43 1 0 0
SMALL
USER_CHARGES


@<TRIPOS>ATOM
      1 C1         -3.0106    2.1512   48.0628 C.3     1  ZINC000744839011    0.0400
      2 O2         -3.9149    1.4350   48.9447 O.3     1  ZINC000744839011   -0.3600
      3 C3         -4.8150    2.1705   49.6262 C.2     1  ZINC000744839011    0.5100
      4 O4         -4.9120    3.3627   49.4126 O.2     1  ZINC000744839011   -0.5000
      5 C5         -5.6824    1.5285   50.6313 C.ar    1  ZINC000744839011   -0.1600
      6 C6         -6.3414    0.3341   50.3277 C.ar    1  ZINC000744839011   -0.0100
      7 C7         -7.1503   -0.2629   51.2690 C.ar    1  ZINC000744839011   -0.2100
      8 C8         -7.3121    0.3204   52.5197 C.ar    1  ZINC000744839011    0.1800
      9 O9         -8.1102   -0.2713   53.4444 O.3     1  ZINC000744839011   -0.2900
     10 C10        -9.5210   -0.1827   53.2354 C.3     1  ZINC000744839011    0.0500
     11 C11       -10.2533   -0.7771   54.4403 C.3     1  ZINC000744839011    0.0600
     12 O12        -9.9615    0.0138   55.6225 O.3     1  ZINC000744839011   -0.3400
     13 C13       -10.4174   -0.4528   56.7956 C.2     1  ZINC000744839011    0.5000
     14 O14       -11.0766   -1.4649   56.8280 O.2     1  ZINC000744839011   -0.4900
     15 C15       -10.1069    0.2855   58.0721 C.3     1  ZINC000744839011   -0.6400
     16 S16        -8.5266   -0.3019   58.7413 S.o2    1  ZINC000744839011    2.4400
     17 O17        -8.6724   -1.6645   59.1171 O.2     1  ZINC000744839011   -0.9100
     18 O18        -7.4900    0.0622   57.8401 O.2     1  ZINC000744839011   -0.9100
     19 C19        -8.3618    0.6981   60.2458 C.3     1  ZINC000744839011   -0.5700
     20 C20        -8.3734    2.1826   59.8752 C.3     1  ZINC000744839011   -0.1500
     21 C21        -9.5296    0.3985   61.1878 C.3     1  ZINC000744839011   -0.1500
     22 C22        -6.6577    1.5092   52.8269 C.ar    1  ZINC000744839011   -0.0800
     23 Cl23       -6.8633    2.2329   54.3915 Cl      1  ZINC000744839011   -0.0400
     24 C24        -5.8430    2.1101   51.8926 C.ar    1  ZINC000744839011   -0.0100
     25 H25        -3.5868    2.6837   47.3061 H       1  ZINC000744839011    0.0700
     26 H26        -2.4261    2.8649   48.6435 H       1  ZINC000744839011    0.0700
     27 H27        -2.3399    1.4425   47.5768 H       1  ZINC000744839011    0.1100
     28 H28        -6.2169   -0.1201   49.3557 H       1  ZINC000744839011    0.1500
     29 H29        -7.6601   -1.1857   51.0346 H       1  ZINC000744839011    0.1500
     30 H30        -9.8058    0.8628   53.1168 H       1  ZINC000744839011    0.0900
     31 H31        -9.7908   -0.7370   52.3366 H       1  ZINC000744839011    0.1000
     32 H32       -11.3271   -0.7685   54.2532 H       1  ZINC000744839011    0.1100
     33 H33        -9.9201   -1.8029   54.5980 H       1  ZINC000744839011    0.0900
     34 H34       -10.0400    1.3539   57.8668 H       1  ZINC000744839011    0.1700
     35 H35       -10.8990    0.1041   58.7986 H       1  ZINC000744839011    0.1700
     36 H36        -7.4225    0.4550   60.7426 H       1  ZINC000744839011    0.1400
     37 H37        -8.2743    2.7835   60.7792 H       1  ZINC000744839011    0.0900
     38 H38        -7.5414    2.3960   59.2041 H       1  ZINC000744839011    0.0700
     39 H39        -9.3126    2.4257   59.3784 H       1  ZINC000744839011    0.0800
     40 H40        -9.5213   -0.6589   61.4517 H       1  ZINC000744839011    0.0800
     41 H41        -9.4306    0.9995   62.0918 H       1  ZINC000744839011    0.0900
     42 H42       -10.4687    0.6417   60.6910 H       1  ZINC000744839011    0.0800
     43 H43        -5.3353    3.0329   52.1313 H       1  ZINC000744839011    0.1600
@<TRIPOS>BOND
     1     1     2    1
     2     1    25    1
     3     1    26    1
     4     1    27    1
     5     2     3    1
     6     3     4    2
     7     3     5    1
     8     5    24   ar
     9     5     6   ar
    10     6     7   ar
    11     6    28    1
    12     7     8   ar
    13     7    29    1
    14     8     9    1
    15     8    22   ar
    16     9    10    1
    17    10    11    1
    18    10    30    1
    19    10    31    1
    20    11    12    1
    21    11    32    1
    22    11    33    1
    23    12    13    1
    24    13    14    2
    25    13    15    1
    26    15    16    1
    27    15    34    1
    28    15    35    1
    29    16    17    2
    30    16    18    2
    31    16    19    1
    32    19    20    1
    33    19    21    1
    34    19    36    1
    35    20    37    1
    36    20    38    1
    37    20    39    1
    38    21    40    1
    39    21    41    1
    40    21    42    1
    41    22    23    1
    42    22    24   ar
    43    24    43    1
@<TRIPOS>SUBSTRUCTURE
     1 ZINC000744839011        1 TEMP              0 ****  ****    0 ROOT


##########                                Name:    ZINC000410354665
##########                DOCK_Rotatable_Bonds:                   7
##########                         Heavy_Atoms:                  29
##########                    Molecular_Weight:             417.889
##########                DOCK_Rotatable_Bonds:                   7
##########                       Formal_Charge:        -3.72529e-08
##########                     HBond_Acceptors:                   7
##########                        HBond_Donors:                   1
##########                         Heavy_Atoms:                  29
##########                          Grid_Score:          -32.790852
##########                     Grid_vdw_energy:          -32.895760
##########                      Grid_es_energy:            0.104909
##########           Internal_energy_repulsive:           18.294361

@<TRIPOS>MOLECULE
ZINC000410354665
 53 56 1 0 0
SMALL
USER_CHARGES


@<TRIPOS>ATOM
      1 C1        -12.0662   -2.2387   57.0471 C.3     1  ZINC000410354665    0.0200
      2 O2        -11.0313   -1.6739   57.8545 O.3     1  ZINC000410354665   -0.3000
      3 C3        -10.1245   -0.8773   57.2277 C.ar    1  ZINC000410354665    0.0900
      4 C4        -10.1635   -0.7345   55.8546 C.ar    1  ZINC000410354665   -0.1100
      5 C5         -9.2304    0.0855   55.2137 C.ar    1  ZINC000410354665   -0.1400
      6 C6         -9.2679    0.2421   53.7465 C.2     1  ZINC000410354665    0.5700
      7 O7        -10.2810   -0.0300   53.1317 O.2     1  ZINC000410354665   -0.5300
      8 N8         -8.1791    0.6865   53.0882 N.am    1  ZINC000410354665   -0.7200
      9 C9         -8.2169    0.8436   51.6321 C.3     1  ZINC000410354665    0.1700
     10 C10        -6.9928    1.5952   51.1760 C.ar    1  ZINC000410354665   -0.1000
     11 C11        -6.7690    2.8842   51.6216 C.ar    1  ZINC000410354665   -0.0900
     12 C12        -5.6478    3.5780   51.2033 C.ar    1  ZINC000410354665   -0.0300
     13 Cl13       -5.3700    5.1971   51.7646 Cl      1  ZINC000410354665   -0.0400
     14 C14        -4.7446    2.9804   50.3357 C.ar    1  ZINC000410354665    0.0700
     15 O15        -3.6495    3.6780   49.9263 O.3     1  ZINC000410354665   -0.2900
     16 C16        -2.5791    2.9180   49.3549 C.3     1  ZINC000410354665    0.0200
     17 C17        -3.1773    1.9277   48.3467 C.3     1  ZINC000410354665    0.0200
     18 O18        -4.0929    1.0761   49.0441 O.3     1  ZINC000410354665   -0.3000
     19 C19        -4.9685    1.6830   49.8912 C.ar    1  ZINC000410354665    0.0600
     20 C20        -6.0931    0.9921   50.3173 C.ar    1  ZINC000410354665   -0.0900
     21 C21        -8.2627    0.7566   55.9647 C.ar    1  ZINC000410354665   -0.0800
     22 C22        -8.2290    0.6093   57.3347 C.ar    1  ZINC000410354665   -0.1900
     23 C23        -9.1591   -0.2002   57.9720 C.ar    1  ZINC000410354665    0.1400
     24 O24        -9.1218   -0.3421   59.3219 O.3     1  ZINC000410354665   -0.2900
     25 C25        -8.3391    0.6045   60.0523 C.3     1  ZINC000410354665    0.0700
     26 C26        -8.9853    2.0104   59.9832 C.3     1  ZINC000410354665   -0.1500
     27 C27        -8.4168    2.7101   61.2428 C.3     1  ZINC000410354665   -0.1200
     28 C28        -8.3903    1.5995   62.3131 C.3     1  ZINC000410354665   -0.1200
     29 C29        -8.3409    0.2607   61.5561 C.3     1  ZINC000410354665   -0.1200
     30 H30       -12.6470   -1.4384   56.5886 H       1  ZINC000410354665    0.0600
     31 H31       -11.6220   -2.8577   56.2676 H       1  ZINC000410354665    0.0600
     32 H32       -12.7191   -2.8509   57.6693 H       1  ZINC000410354665    0.1000
     33 H33       -10.9130   -1.2553   55.2773 H       1  ZINC000410354665    0.1500
     34 H34        -7.3704    0.9024   53.5784 H       1  ZINC000410354665    0.4000
     35 H35        -8.2363   -0.1392   51.1610 H       1  ZINC000410354665    0.0800
     36 H36        -9.1108    1.3996   51.3497 H       1  ZINC000410354665    0.0900
     37 H37        -7.4708    3.3507   52.2971 H       1  ZINC000410354665    0.1500
     38 H38        -1.8847    3.5865   48.8458 H       1  ZINC000410354665    0.1300
     39 H39        -2.0559    2.3722   50.1400 H       1  ZINC000410354665    0.0800
     40 H40        -3.7056    2.4733   47.5647 H       1  ZINC000410354665    0.0800
     41 H41        -2.3819    1.3282   47.9042 H       1  ZINC000410354665    0.1300
     42 H42        -6.2680   -0.0171   49.9747 H       1  ZINC000410354665    0.1400
     43 H43        -7.5407    1.3906   55.4717 H       1  ZINC000410354665    0.1300
     44 H44        -7.4800    1.1286   57.9141 H       1  ZINC000410354665    0.1400
     45 H45        -7.3193    0.6320   59.6684 H       1  ZINC000410354665    0.0800
     46 H46        -8.6766    2.5335   59.0782 H       1  ZINC000410354665    0.0700
     47 H47       -10.0716    1.9394   60.0381 H       1  ZINC000410354665    0.0800
     48 H48        -7.4094    3.0800   61.0517 H       1  ZINC000410354665    0.0700
     49 H49        -9.0705    3.5247   61.5544 H       1  ZINC000410354665    0.0700
     50 H50        -7.5053    1.7066   62.9405 H       1  ZINC000410354665    0.0700
     51 H51        -9.2908    1.6493   62.9252 H       1  ZINC000410354665    0.0700
     52 H52        -9.2174   -0.3392   61.8010 H       1  ZINC000410354665    0.0800
     53 H53        -7.4321   -0.2820   61.8162 H       1  ZINC000410354665    0.0700
@<TRIPOS>BOND
     1     1     2    1
     2     1    30    1
     3     1    31    1
     4     1    32    1
     5     2     3    1
     6     3    23   ar
     7     3     4   ar
     8     4     5   ar
     9     4    33    1
    10     5     6    1
    11     5    21   ar
    12     6     7    2
    13     6     8   am
    14     8     9    1
    15     8    34    1
    16     9    10    1
    17     9    35    1
    18     9    36    1
    19    10    20   ar
    20    10    11   ar
    21    11    12   ar
    22    11    37    1
    23    12    13    1
    24    12    14   ar
    25    14    19   ar
    26    14    15    1
    27    15    16    1
    28    16    17    1
    29    16    38    1
    30    16    39    1
    31    17    18    1
    32    17    40    1
    33    17    41    1
    34    18    19    1
    35    19    20   ar
    36    20    42    1
    37    21    22   ar
    38    21    43    1
    39    22    23   ar
    40    22    44    1
    41    23    24    1
    42    24    25    1
    43    25    29    1
    44    25    26    1
    45    25    45    1
    46    26    27    1
    47    26    46    1
    48    26    47    1
    49    27    28    1
    50    27    48    1
    51    27    49    1
    52    28    29    1
    53    28    50    1
    54    28    51    1
    55    29    52    1
    56    29    53    1
@<TRIPOS>SUBSTRUCTURE
     1 ZINC000410354665        1 TEMP              0 ****  ****    0 ROOT


##########                                Name:    ZINC000914736341
##########                DOCK_Rotatable_Bonds:                   7
##########                         Heavy_Atoms:                  27
##########                    Molecular_Weight:             384.905
##########                DOCK_Rotatable_Bonds:                   7
##########                       Formal_Charge:                0.02
##########                     HBond_Acceptors:                   5
##########                        HBond_Donors:                   1
##########                         Heavy_Atoms:                  27
##########                          Grid_Score:          -32.765469
##########                     Grid_vdw_energy:          -30.979658
##########                      Grid_es_energy:           -1.785811
##########           Internal_energy_repulsive:           27.007923

@<TRIPOS>MOLECULE
ZINC000914736341
 52 54 1 0 0
SMALL
USER_CHARGES


@<TRIPOS>ATOM
      1 C1         -5.4377    3.4806   55.7288 C.3     1  ZINC000914736341   -0.1400
      2 C2         -6.9184    3.1051   55.6413 C.3     1  ZINC000914736341   -0.0300
      3 C3         -7.6380    4.0818   54.7090 C.3     1  ZINC000914736341   -0.1400
      4 C4         -7.0523    1.6833   55.0922 C.3     1  ZINC000914736341    0.1300
      5 N5         -6.6101    1.6554   53.6958 N.am    1  ZINC000914736341   -0.7200
      6 C6         -7.5122    1.5029   52.7062 C.2     1  ZINC000914736341    0.5300
      7 O7         -8.6899    1.3874   52.9717 O.2     1  ZINC000914736341   -0.5300
      8 C8         -7.0574    1.4760   51.2697 C.3     1  ZINC000914736341   -0.1200
      9 H9         -7.9114    1.4660   50.5924 H       1  ZINC000914736341    0.1200
     10 C10        -6.1279    0.2688   51.0060 C.3     1  ZINC000914736341   -0.1400
     11 C11        -5.0945    0.8008   50.0377 C.2     1  ZINC000914736341    0.5200
     12 O12        -4.3539    0.1144   49.3658 O.2     1  ZINC000914736341   -0.5200
     13 N13        -5.1167    2.1448   50.0302 N.am    1  ZINC000914736341   -0.6100
     14 C14        -4.2490    2.9811   49.1972 C.3     1  ZINC000914736341    0.1600
     15 C15        -2.8578    2.9946   49.7763 C.ar    1  ZINC000914736341   -0.1000
     16 C16        -2.6500    3.4486   51.0649 C.ar    1  ZINC000914736341   -0.0800
     17 C17        -1.3737    3.4610   51.5964 C.ar    1  ZINC000914736341   -0.1100
     18 C18        -0.3048    3.0199   50.8392 C.ar    1  ZINC000914736341   -0.1000
     19 C19        -0.5114    2.5655   49.5501 C.ar    1  ZINC000914736341   -0.1100
     20 C20        -1.7890    2.5470   49.0200 C.ar    1  ZINC000914736341   -0.0300
     21 Cl21       -2.0492    1.9765   47.4012 Cl      1  ZINC000914736341   -0.0600
     22 C22        -6.1228    2.6672   50.9632 C.3     1  ZINC000914736341    0.1000
     23 C23        -7.5360    3.1736   57.0142 C.ar    1  ZINC000914736341   -0.0700
     24 C24        -7.6064    2.0371   57.7979 C.ar    1  ZINC000914736341   -0.1200
     25 C25        -8.1730    2.1000   59.0573 C.ar    1  ZINC000914736341   -0.1200
     26 C26        -8.6688    3.2995   59.5330 C.ar    1  ZINC000914736341   -0.1200
     27 C27        -8.5975    4.4362   58.7497 C.ar    1  ZINC000914736341   -0.1200
     28 C28        -8.0271    4.3742   57.4920 C.ar    1  ZINC000914736341   -0.1100
     29 H29        -5.3423    4.4935   56.1200 H       1  ZINC000914736341    0.0600
     30 H30        -4.9251    2.7848   56.3929 H       1  ZINC000914736341    0.0600
     31 H31        -4.9910    3.4310   54.7358 H       1  ZINC000914736341    0.0600
     32 H32        -7.1913    4.0322   53.7160 H       1  ZINC000914736341    0.0600
     33 H33        -8.6928    3.8142   54.6466 H       1  ZINC000914736341    0.0600
     34 H34        -7.5426    5.0947   55.1002 H       1  ZINC000914736341    0.0600
     35 H35        -6.4349    1.0062   55.6825 H       1  ZINC000914736341    0.0700
     36 H36        -8.0942    1.3683   55.1497 H       1  ZINC000914736341    0.0700
     37 H37        -5.6680    1.7467   53.4836 H       1  ZINC000914736341    0.4000
     38 H38        -5.6522   -0.0557   51.9315 H       1  ZINC000914736341    0.1100
     39 H39        -6.6866   -0.5515   50.5551 H       1  ZINC000914736341    0.1100
     40 H40        -4.2175    2.5769   48.1853 H       1  ZINC000914736341    0.1000
     41 H41        -4.6412    3.9977   49.1703 H       1  ZINC000914736341    0.1000
     42 H42        -3.4846    3.7941   51.6568 H       1  ZINC000914736341    0.1400
     43 H43        -1.2118    3.8159   52.6035 H       1  ZINC000914736341    0.1300
     44 H44         0.6921    3.0305   51.2546 H       1  ZINC000914736341    0.1300
     45 H45         0.3238    2.2208   48.9585 H       1  ZINC000914736341    0.1400
     46 H46        -6.6835    3.4780   50.4981 H       1  ZINC000914736341    0.1000
     47 H47        -5.6438    3.0152   51.8784 H       1  ZINC000914736341    0.0900
     48 H48        -7.2191    1.1000   57.4262 H       1  ZINC000914736341    0.1300
     49 H49        -8.2286    1.2119   59.6693 H       1  ZINC000914736341    0.1200
     50 H50        -9.1120    3.3484   60.5167 H       1  ZINC000914736341    0.1200
     51 H51        -8.9851    5.3732   59.1213 H       1  ZINC000914736341    0.1200
     52 H52        -7.9714    5.2624   56.8800 H       1  ZINC000914736341    0.1200
@<TRIPOS>BOND
     1     1     2    1
     2     1    29    1
     3     1    30    1
     4     1    31    1
     5     2     3    1
     6     2     4    1
     7     2    23    1
     8     3    32    1
     9     3    33    1
    10     3    34    1
    11     4     5    1
    12     4    35    1
    13     4    36    1
    14     5     6   am
    15     5    37    1
    16     6     7    2
    17     6     8    1
    18     8     9    1
    19     8    22    1
    20     8    10    1
    21    10    11    1
    22    10    38    1
    23    10    39    1
    24    11    12    2
    25    11    13   am
    26    13    14    1
    27    13    22    1
    28    14    15    1
    29    14    40    1
    30    14    41    1
    31    15    20   ar
    32    15    16   ar
    33    16    17   ar
    34    16    42    1
    35    17    18   ar
    36    17    43    1
    37    18    19   ar
    38    18    44    1
    39    19    20   ar
    40    19    45    1
    41    20    21    1
    42    22    46    1
    43    22    47    1
    44    23    28   ar
    45    23    24   ar
    46    24    25   ar
    47    24    48    1
    48    25    26   ar
    49    25    49    1
    50    26    27   ar
    51    26    50    1
    52    27    28   ar
    53    27    51    1
    54    28    52    1
@<TRIPOS>SUBSTRUCTURE
     1 ZINC000914736341        1 TEMP              0 ****  ****    0 ROOT


##########                                Name:    ZINC000409064708
##########                DOCK_Rotatable_Bonds:                   8
##########                         Heavy_Atoms:                  29
##########                    Molecular_Weight:             415.442
##########                DOCK_Rotatable_Bonds:                   8
##########                       Formal_Charge:                0.03
##########                     HBond_Acceptors:                   8
##########                        HBond_Donors:                   0
##########                         Heavy_Atoms:                  29
##########                          Grid_Score:          -32.765102
##########                     Grid_vdw_energy:          -31.143452
##########                      Grid_es_energy:           -1.621649
##########           Internal_energy_repulsive:           19.262863

@<TRIPOS>MOLECULE
ZINC000409064708
 47 49 1 0 0
SMALL
USER_CHARGES


@<TRIPOS>ATOM
      1 C1         -7.8758   -0.3108   59.8360 C.3     1  ZINC000409064708    0.0400
      2 O2         -8.5997    0.7319   59.1309 O.3     1  ZINC000409064708   -0.3500
      3 C3         -9.2248    0.3794   57.9966 C.2     1  ZINC000409064708    0.4600
      4 O4         -9.3915   -0.7887   57.7364 O.2     1  ZINC000409064708   -0.4900
      5 C5         -9.7188    1.4407   57.0475 C.3     1  ZINC000409064708    0.1400
      6 H6        -10.7279    1.1925   56.7183 H       1  ZINC000409064708    0.1500
      7 C7         -9.7330    2.7949   57.7592 C.3     1  ZINC000409064708   -0.1600
      8 N8         -8.8292    1.5090   55.8854 N.am    1  ZINC000409064708   -0.5600
      9 C9         -7.5234    1.7496   56.0498 C.2     1  ZINC000409064708    0.5400
     10 O10        -6.9471    1.9294   57.1058 O.2     1  ZINC000409064708   -0.4200
     11 S11        -6.7937    1.7554   54.4347 S.3     1  ZINC000409064708   -0.0100
     12 C12        -8.3189    1.4250   53.5893 C.2     1  ZINC000409064708   -0.2400
     13 C13        -8.5208    1.2886   52.2542 C.2     1  ZINC000409064708    0.0900
     14 C14        -7.3915    1.4153   51.3242 C.ar    1  ZINC000409064708   -0.1400
     15 C15        -6.4927    0.3539   51.1614 C.ar    1  ZINC000409064708    0.0000
     16 C16        -5.4356    0.4782   50.2882 C.ar    1  ZINC000409064708   -0.1600
     17 C17        -5.2595    1.6548   49.5690 C.ar    1  ZINC000409064708    0.1600
     18 O18        -4.2155    1.7720   48.7091 O.3     1  ZINC000409064708   -0.3000
     19 C19        -3.4877    3.0015   48.7359 C.3     1  ZINC000409064708    0.1000
     20 C20        -2.6203    3.0451   49.9674 C.ar    1  ZINC000409064708   -0.0700
     21 C21        -3.1494    3.4737   51.1703 C.ar    1  ZINC000409064708   -0.1000
     22 C22        -2.3548    3.5143   52.3011 C.ar    1  ZINC000409064708   -0.0900
     23 C23        -1.0305    3.1262   52.2298 C.ar    1  ZINC000409064708   -0.1400
     24 C24        -0.4994    2.6961   51.0253 C.ar    1  ZINC000409064708    0.1000
     25 F25         0.7952    2.3165   50.9545 F       1  ZINC000409064708   -0.1400
     26 C26        -1.2974    2.6510   49.8950 C.ar    1  ZINC000409064708   -0.1300
     27 C27        -6.1487    2.7116   49.7267 C.ar    1  ZINC000409064708   -0.2200
     28 C28        -7.2127    2.5959   50.5925 C.ar    1  ZINC000409064708   -0.0400
     29 C29        -9.3101    1.3278   54.6668 C.2     1  ZINC000409064708    0.5600
     30 O30       -10.4875    1.1042   54.4545 O.2     1  ZINC000409064708   -0.4600
     31 H31        -8.5663   -1.1060   60.1171 H       1  ZINC000409064708    0.0700
     32 H32        -7.0993   -0.7163   59.1874 H       1  ZINC000409064708    0.0700
     33 H33        -7.4185    0.1071   60.7328 H       1  ZINC000409064708    0.1100
     34 H34       -10.3949    2.7441   58.6237 H       1  ZINC000409064708    0.1000
     35 H35        -8.7239    3.0430   58.0884 H       1  ZINC000409064708    0.0800
     36 H36       -10.0903    3.5625   57.0728 H       1  ZINC000409064708    0.0800
     37 H37        -9.5120    1.0869   51.8757 H       1  ZINC000409064708    0.1600
     38 H38        -6.6281   -0.5602   51.7202 H       1  ZINC000409064708    0.1300
     39 H39        -4.7419   -0.3397   50.1618 H       1  ZINC000409064708    0.1400
     40 H40        -2.8607    3.0720   47.8472 H       1  ZINC000409064708    0.0800
     41 H41        -4.1872    3.8373   48.7544 H       1  ZINC000409064708    0.0800
     42 H42        -4.1842    3.7775   51.2269 H       1  ZINC000409064708    0.1300
     43 H43        -2.7691    3.8497   53.2403 H       1  ZINC000409064708    0.1400
     44 H44        -0.4097    3.1586   53.1130 H       1  ZINC000409064708    0.1400
     45 H45        -0.8845    2.3155   48.9552 H       1  ZINC000409064708    0.1400
     46 H46        -6.0070    3.6235   49.1657 H       1  ZINC000409064708    0.1300
     47 H47        -7.9030    3.4176   50.7142 H       1  ZINC000409064708    0.1300
@<TRIPOS>BOND
     1     1     2    1
     2     1    31    1
     3     1    32    1
     4     1    33    1
     5     2     3    1
     6     3     4    2
     7     3     5    1
     8     5     6    1
     9     5     7    1
    10     5     8    1
    11     7    34    1
    12     7    35    1
    13     7    36    1
    14     8    29   am
    15     8     9   am
    16     9    10    2
    17     9    11    1
    18    11    12    1
    19    12    13    2
    20    12    29    1
    21    13    14    1
    22    13    37    1
    23    14    28   ar
    24    14    15   ar
    25    15    16   ar
    26    15    38    1
    27    16    17   ar
    28    16    39    1
    29    17    18    1
    30    17    27   ar
    31    18    19    1
    32    19    20    1
    33    19    40    1
    34    19    41    1
    35    20    26   ar
    36    20    21   ar
    37    21    22   ar
    38    21    42    1
    39    22    23   ar
    40    22    43    1
    41    23    24   ar
    42    23    44    1
    43    24    25    1
    44    24    26   ar
    45    26    45    1
    46    27    28   ar
    47    27    46    1
    48    28    47    1
    49    29    30    2
@<TRIPOS>SUBSTRUCTURE
     1 ZINC000409064708        1 TEMP              0 ****  ****    0 ROOT


##########                                Name:    ZINC001341052241
##########                DOCK_Rotatable_Bonds:                   7
##########                         Heavy_Atoms:                  24
##########                    Molecular_Weight:             336.478
##########                DOCK_Rotatable_Bonds:                   7
##########                       Formal_Charge:         5.96046e-08
##########                     HBond_Acceptors:                   6
##########                        HBond_Donors:                   0
##########                         Heavy_Atoms:                  24
##########                          Grid_Score:          -32.753025
##########                     Grid_vdw_energy:          -32.293213
##########                      Grid_es_energy:           -0.459813
##########           Internal_energy_repulsive:           10.077694

@<TRIPOS>MOLECULE
ZINC001341052241
 56 58 1 0 0
SMALL
USER_CHARGES


@<TRIPOS>ATOM
      1 C1         -1.8989    4.5811   51.0219 C.3     1  ZINC001341052241   -0.1700
      2 C2         -1.5490    3.1006   50.8589 C.3     1  ZINC001341052241    0.1100
      3 N3         -1.9700    2.6426   49.5326 N.pl3   1  ZINC001341052241   -0.4500
      4 C4         -1.1951    2.5383   48.4108 C.2     1  ZINC001341052241    0.1800
      5 C5          0.2698    2.8750   48.3026 C.3     1  ZINC001341052241    0.1500
      6 O6          1.0174    1.6796   48.0702 O.3     1  ZINC001341052241   -0.3700
      7 C7          1.8891    1.3211   49.1444 C.3     1  ZINC001341052241    0.0900
      8 C8          3.0022    2.3635   49.2673 C.3     1  ZINC001341052241   -0.1400
      9 C9          3.9354    1.9797   50.4175 C.3     1  ZINC001341052241   -0.1200
     10 C10         4.5508    0.6069   50.1386 C.3     1  ZINC001341052241   -0.1200
     11 C11         3.4376   -0.4354   50.0155 C.3     1  ZINC001341052241   -0.1200
     12 C12         2.5044   -0.0516   48.8654 C.3     1  ZINC001341052241   -0.1200
     13 N13        -1.9579    2.0931   47.4529 N.2     1  ZINC001341052241   -0.2600
     14 N14        -3.1514    1.9050   47.8911 N.2     1  ZINC001341052241   -0.3100
     15 C15        -3.2168    2.2319   49.1603 C.2     1  ZINC001341052241    0.3500
     16 N16        -4.3388    2.1667   49.9709 N.3     1  ZINC001341052241   -0.4600
     17 C17        -5.4045    3.0418   49.4659 C.3     1  ZINC001341052241    0.0700
     18 C18        -6.5682    3.0565   50.4598 C.3     1  ZINC001341052241   -0.1100
     19 C19        -7.0960    1.6307   50.6412 C.3     1  ZINC001341052241   -0.0900
     20 C20        -8.2197    1.6298   51.6796 C.3     1  ZINC001341052241    0.0700
     21 O21        -8.2095    0.3907   52.3915 O.3     1  ZINC001341052241   -0.3900
     22 C22        -9.4935   -0.0159   52.8689 C.3     1  ZINC001341052241    0.0300
     23 C23        -5.9550    0.7296   51.1213 C.3     1  ZINC001341052241   -0.1100
     24 C24        -4.8091    0.7823   50.1082 C.3     1  ZINC001341052241    0.0700
     25 H25        -1.3929    5.1612   50.2503 H       1  ZINC001341052241    0.0600
     26 H26        -2.9768    4.7123   50.9269 H       1  ZINC001341052241    0.0700
     27 H27        -1.5764    4.9246   52.0049 H       1  ZINC001341052241    0.0800
     28 H28        -2.0632    2.5193   51.6242 H       1  ZINC001341052241    0.0900
     29 H29        -0.4722    2.9680   50.9642 H       1  ZINC001341052241    0.1000
     30 H30         0.4235    3.5665   47.4741 H       1  ZINC001341052241    0.0900
     31 H31         0.6054    3.3390   49.2301 H       1  ZINC001341052241    0.0700
     32 H32         1.3225    1.2830   50.0748 H       1  ZINC001341052241    0.0600
     33 H33         3.5689    2.4016   48.3370 H       1  ZINC001341052241    0.0700
     34 H34         2.5639    3.3415   49.4662 H       1  ZINC001341052241    0.0700
     35 H35         3.3689    1.9417   51.3479 H       1  ZINC001341052241    0.0600
     36 H36         4.7285    2.7224   50.5051 H       1  ZINC001341052241    0.0700
     37 H37         5.2157    0.3336   50.9579 H       1  ZINC001341052241    0.0600
     38 H38         5.1173    0.6450   49.2081 H       1  ZINC001341052241    0.0600
     39 H39         2.8711   -0.4735   50.9459 H       1  ZINC001341052241    0.0600
     40 H40         3.8761   -1.4134   49.8168 H       1  ZINC001341052241    0.0700
     41 H41         1.7113   -0.7943   48.7778 H       1  ZINC001341052241    0.0700
     42 H42         3.0710   -0.0136   47.9350 H       1  ZINC001341052241    0.0700
     43 H43        -5.7541    2.6698   48.5028 H       1  ZINC001341052241    0.0600
     44 H44        -5.0171    4.0534   49.3454 H       1  ZINC001341052241    0.0800
     45 H45        -7.3653    3.6938   50.0773 H       1  ZINC001341052241    0.0800
     46 H46        -6.2225    3.4414   51.4192 H       1  ZINC001341052241    0.0800
     47 H47        -7.4786    1.2602   49.6902 H       1  ZINC001341052241    0.0800
     48 H48        -9.1791    1.7519   51.1769 H       1  ZINC001341052241    0.0500
     49 H49        -8.0688    2.4519   52.3791 H       1  ZINC001341052241    0.0500
     50 H50        -9.8855    0.7416   53.5474 H       1  ZINC001341052241    0.0400
     51 H51        -9.4007   -0.9645   53.3978 H       1  ZINC001341052241    0.0900
     52 H52       -10.1736   -0.1352   52.0255 H       1  ZINC001341052241    0.0400
     53 H53        -5.5997    1.0779   52.0911 H       1  ZINC001341052241    0.0700
     54 H54        -6.3142   -0.2956   51.2114 H       1  ZINC001341052241    0.0800
     55 H55        -5.1615    0.4209   49.1422 H       1  ZINC001341052241    0.0600
     56 H56        -3.9892    0.1529   50.4543 H       1  ZINC001341052241    0.0800
@<TRIPOS>BOND
     1     1     2    1
     2     1    25    1
     3     1    26    1
     4     1    27    1
     5     2     3    1
     6     2    28    1
     7     2    29    1
     8     3    15    1
     9     3     4    1
    10     4     5    1
    11     4    13    2
    12     5     6    1
    13     5    30    1
    14     5    31    1
    15     6     7    1
    16     7    12    1
    17     7     8    1
    18     7    32    1
    19     8     9    1
    20     8    33    1
    21     8    34    1
    22     9    10    1
    23     9    35    1
    24     9    36    1
    25    10    11    1
    26    10    37    1
    27    10    38    1
    28    11    12    1
    29    11    39    1
    30    11    40    1
    31    12    41    1
    32    12    42    1
    33    13    14    1
    34    14    15    2
    35    15    16    1
    36    16    24    1
    37    16    17    1
    38    17    18    1
    39    17    43    1
    40    17    44    1
    41    18    19    1
    42    18    45    1
    43    18    46    1
    44    19    20    1
    45    19    23    1
    46    19    47    1
    47    20    21    1
    48    20    48    1
    49    20    49    1
    50    21    22    1
    51    22    50    1
    52    22    51    1
    53    22    52    1
    54    23    24    1
    55    23    53    1
    56    23    54    1
    57    24    55    1
    58    24    56    1
@<TRIPOS>SUBSTRUCTURE
     1 ZINC001341052241        1 TEMP              0 ****  ****    0 ROOT


##########                                Name:    ZINC000433961694
##########                DOCK_Rotatable_Bonds:                   7
##########                         Heavy_Atoms:                  29
##########                    Molecular_Weight:             413.472
##########                DOCK_Rotatable_Bonds:                   7
##########                       Formal_Charge:          0.00999992
##########                     HBond_Acceptors:                   8
##########                        HBond_Donors:                   0
##########                         Heavy_Atoms:                  29
##########                          Grid_Score:          -32.749107
##########                     Grid_vdw_energy:          -32.271233
##########                      Grid_es_energy:           -0.477875
##########           Internal_energy_repulsive:           12.079829

@<TRIPOS>MOLECULE
ZINC000433961694
 49 52 1 0 0
SMALL
USER_CHARGES


@<TRIPOS>ATOM
      1 C1         -9.1821   -0.6384   52.5479 C.3     1  ZINC000433961694   -0.1000
      2 C2         -8.1633    0.3482   52.0385 C.2     1  ZINC000433961694    0.1600
      3 C3         -8.2256    1.6766   52.3062 C.2     1  ZINC000433961694   -0.3000
      4 C4         -9.2549    2.3504   53.1051 C.2     1  ZINC000433961694    0.6200
      5 O5        -10.2154    2.8579   52.5568 O.2     1  ZINC000433961694   -0.5100
      6 N6         -9.1368    2.4073   54.4465 N.am    1  ZINC000433961694   -0.6100
      7 C7        -10.0928    3.0498   55.3667 C.3     1  ZINC000433961694    0.1100
      8 C8         -9.8745    2.3385   56.7255 C.3     1  ZINC000433961694   -0.1300
      9 C9         -8.3381    2.1223   56.7206 C.3     1  ZINC000433961694    0.0800
     10 H10        -7.8210    3.0216   57.0551 H       1  ZINC000433961694    0.1000
     11 O11        -7.9824    1.0039   57.5360 O.3     1  ZINC000433961694   -0.2900
     12 C12        -8.1375    1.1449   58.8770 C.ar    1  ZINC000433961694    0.1700
     13 C13        -8.3887    2.3941   59.4393 C.ar    1  ZINC000433961694   -0.2600
     14 C14        -8.5403    2.4958   60.8069 C.ar    1  ZINC000433961694    0.1400
     15 N15        -8.4501    1.4291   61.5785 N.ar    1  ZINC000433961694   -0.5100
     16 C16        -8.2133    0.2291   61.0832 C.ar    1  ZINC000433961694    0.1400
     17 C17        -8.0553    0.0434   59.7251 C.ar    1  ZINC000433961694   -0.2000
     18 C18        -8.0366    1.8334   55.2350 C.3     1  ZINC000433961694    0.0600
     19 S19        -6.8482    2.4475   51.5229 S.3     1  ZINC000433961694    0.2100
     20 C20        -6.3310    0.9333   50.9213 C.2     1  ZINC000433961694    0.0400
     21 C21        -5.1050    0.7186   50.0715 C.3     1  ZINC000433961694    0.1400
     22 O22        -4.7710    1.9357   49.4012 O.3     1  ZINC000433961694   -0.3000
     23 C23        -3.4490    2.2137   49.2490 C.ar    1  ZINC000433961694    0.1200
     24 C24        -2.7246    2.7430   50.3068 C.ar    1  ZINC000433961694   -0.1800
     25 C25        -1.3813    3.0251   50.1508 C.ar    1  ZINC000433961694   -0.1100
     26 C26        -0.7581    2.7801   48.9389 C.ar    1  ZINC000433961694    0.0600
     27 F27         0.5556    3.0567   48.7875 F       1  ZINC000433961694   -0.1400
     28 C28        -1.4798    2.2512   47.8823 C.ar    1  ZINC000433961694   -0.1100
     29 C29        -2.8220    1.9629   48.0374 C.ar    1  ZINC000433961694   -0.1200
     30 N30        -7.1381   -0.0035   51.3036 N.2     1  ZINC000433961694   -0.4500
     31 H31        -8.8667   -1.0171   53.5202 H       1  ZINC000433961694    0.0800
     32 H32       -10.1486   -0.1443   52.6466 H       1  ZINC000433961694    0.1000
     33 H33        -9.2679   -1.4675   51.8455 H       1  ZINC000433961694    0.0800
     34 H34        -9.8760    4.1142   55.4566 H       1  ZINC000433961694    0.0800
     35 H35       -11.1146    2.8981   55.0189 H       1  ZINC000433961694    0.1000
     36 H36       -10.1764    2.9787   57.5544 H       1  ZINC000433961694    0.1000
     37 H37       -10.4031    1.3858   56.7571 H       1  ZINC000433961694    0.1000
     38 H38        -8.4633    3.2711   58.8135 H       1  ZINC000433961694    0.1400
     39 H39        -8.7349    3.4606   61.2515 H       1  ZINC000433961694    0.1600
     40 H40        -8.1466   -0.6189   61.7486 H       1  ZINC000433961694    0.1700
     41 H41        -7.8620   -0.9414   59.3261 H       1  ZINC000433961694    0.1400
     42 H42        -7.9784    0.7574   55.0709 H       1  ZINC000433961694    0.0900
     43 H43        -7.0967    2.3056   54.9490 H       1  ZINC000433961694    0.0800
     44 H44        -4.2727    0.4126   50.7053 H       1  ZINC000433961694    0.0900
     45 H45        -5.3054   -0.0589   49.3345 H       1  ZINC000433961694    0.1000
     46 H46        -3.2107    2.9350   51.2520 H       1  ZINC000433961694    0.1400
     47 H47        -0.8171    3.4373   50.9742 H       1  ZINC000433961694    0.1400
     48 H48        -0.9924    2.0602   46.9377 H       1  ZINC000433961694    0.1500
     49 H49        -3.3847    1.5504   47.2132 H       1  ZINC000433961694    0.1400
@<TRIPOS>BOND
     1     1     2    1
     2     1    31    1
     3     1    32    1
     4     1    33    1
     5     2    30    1
     6     2     3    2
     7     3     4    1
     8     3    19    1
     9     4     5    2
    10     4     6   am
    11     6    18    1
    12     6     7    1
    13     7     8    1
    14     7    34    1
    15     7    35    1
    16     8     9    1
    17     8    36    1
    18     8    37    1
    19     9    10    1
    20     9    11    1
    21     9    18    1
    22    11    12    1
    23    12    17   ar
    24    12    13   ar
    25    13    14   ar
    26    13    38    1
    27    14    15   ar
    28    14    39    1
    29    15    16   ar
    30    16    17   ar
    31    16    40    1
    32    17    41    1
    33    18    42    1
    34    18    43    1
    35    19    20    1
    36    20    21    1
    37    20    30    2
    38    21    22    1
    39    21    44    1
    40    21    45    1
    41    22    23    1
    42    23    29   ar
    43    23    24   ar
    44    24    25   ar
    45    24    46    1
    46    25    26   ar
    47    25    47    1
    48    26    27    1
    49    26    28   ar
    50    28    29   ar
    51    28    48    1
    52    29    49    1
@<TRIPOS>SUBSTRUCTURE
     1 ZINC000433961694        1 TEMP              0 ****  ****    0 ROOT


##########                                Name:    ZINC000463741321
##########                DOCK_Rotatable_Bonds:                   7
##########                         Heavy_Atoms:                  26
##########                    Molecular_Weight:             354.467
##########                DOCK_Rotatable_Bonds:                   7
##########                       Formal_Charge:         -6.4075e-07
##########                     HBond_Acceptors:                   4
##########                        HBond_Donors:                   1
##########                         Heavy_Atoms:                  26
##########                          Grid_Score:          -32.744396
##########                     Grid_vdw_energy:          -31.153769
##########                      Grid_es_energy:           -1.590629
##########           Internal_energy_repulsive:           16.878834

@<TRIPOS>MOLECULE
ZINC000463741321
 53 55 1 0 0
SMALL
USER_CHARGES


@<TRIPOS>ATOM
      1 C1         -8.6096    6.2269   47.4912 C.3     1  ZINC000463741321   -0.1500
      2 C2         -9.1970    5.7106   48.8063 C.3     1  ZINC000463741321   -0.1100
      3 H3         -9.6464    6.5393   49.3536 H       1  ZINC000463741321    0.1000
      4 C4        -10.2656    4.6569   48.5087 C.3     1  ZINC000463741321   -0.0900
      5 C5        -11.0518    4.3529   49.7856 C.3     1  ZINC000463741321   -0.0800
      6 C6        -11.9755    3.1876   49.5414 C.ar    1  ZINC000463741321   -0.1200
      7 C7        -12.4970    2.9716   48.2802 C.ar    1  ZINC000463741321   -0.0900
      8 C8        -13.3447    1.9025   48.0557 C.ar    1  ZINC000463741321   -0.1300
      9 C9        -13.6717    1.0490   49.0926 C.ar    1  ZINC000463741321   -0.1000
     10 C10       -13.1516    1.2633   50.3551 C.ar    1  ZINC000463741321   -0.1500
     11 C11       -12.2976    2.3295   50.5795 C.ar    1  ZINC000463741321    0.1000
     12 F12       -11.7886    2.5400   51.8131 F       1  ZINC000463741321   -0.1400
     13 C13        -8.1018    5.0945   49.6381 C.2     1  ZINC000463741321    0.5200
     14 O14        -7.3970    5.7984   50.3302 O.2     1  ZINC000463741321   -0.5300
     15 N15        -7.9054    3.7614   49.6132 N.am    1  ZINC000463741321   -0.7300
     16 C16        -6.8395    3.1627   50.4205 C.3     1  ZINC000463741321    0.1500
     17 H17        -6.6938    3.7522   51.3256 H       1  ZINC000463741321    0.1000
     18 C18        -7.2284    1.7311   50.8000 C.3     1  ZINC000463741321   -0.1300
     19 C19        -6.0840    1.0927   51.5920 C.3     1  ZINC000463741321   -0.1200
     20 C20        -4.8066    1.1260   50.7499 C.3     1  ZINC000463741321    0.0600
     21 N21        -4.4767    2.5169   50.4136 N.3     1  ZINC000463741321   -0.4800
     22 C22        -3.2461    2.5948   49.7575 C.ar    1  ZINC000463741321    0.1100
     23 C23        -3.1295    2.1622   48.4426 C.ar    1  ZINC000463741321   -0.1700
     24 C24        -1.9114    2.2411   47.7967 C.ar    1  ZINC000463741321   -0.0900
     25 C25        -0.8083    2.7495   48.4577 C.ar    1  ZINC000463741321   -0.1500
     26 C26        -0.9207    3.1811   49.7666 C.ar    1  ZINC000463741321   -0.0900
     27 C27        -2.1372    3.1103   50.4166 C.ar    1  ZINC000463741321   -0.1400
     28 C28        -5.5400    3.1369   49.6127 C.3     1  ZINC000463741321    0.0500
     29 H29        -8.1602    5.3982   46.9440 H       1  ZINC000463741321    0.0600
     30 H30        -9.4017    6.6725   46.8897 H       1  ZINC000463741321    0.0700
     31 H31        -7.8483    6.9776   47.7033 H       1  ZINC000463741321    0.0600
     32 H32       -10.9453    5.0344   47.7448 H       1  ZINC000463741321    0.0700
     33 H33        -9.7871    3.7452   48.1508 H       1  ZINC000463741321    0.0700
     34 H34       -10.3581    4.1045   50.5889 H       1  ZINC000463741321    0.0800
     35 H35       -11.6372    5.2276   50.0687 H       1  ZINC000463741321    0.0800
     36 H36       -12.2428    3.6383   47.4695 H       1  ZINC000463741321    0.1300
     37 H37       -13.7518    1.7345   47.0696 H       1  ZINC000463741321    0.1300
     38 H38       -14.3342    0.2144   48.9162 H       1  ZINC000463741321    0.1300
     39 H39       -13.4078    0.5966   51.1652 H       1  ZINC000463741321    0.1400
     40 H40        -8.4699    3.1983   49.0607 H       1  ZINC000463741321    0.4000
     41 H41        -8.1299    1.7487   51.4124 H       1  ZINC000463741321    0.0700
     42 H42        -7.4128    1.1518   49.8953 H       1  ZINC000463741321    0.0600
     43 H43        -5.9257    1.6495   52.5156 H       1  ZINC000463741321    0.0800
     44 H44        -6.3372    0.0592   51.8283 H       1  ZINC000463741321    0.0800
     45 H45        -3.9865    0.6851   51.3165 H       1  ZINC000463741321    0.0900
     46 H46        -4.9611    0.5574   49.8328 H       1  ZINC000463741321    0.0500
     47 H47        -3.9906    1.7643   47.9261 H       1  ZINC000463741321    0.1200
     48 H48        -1.8201    1.9050   46.7745 H       1  ZINC000463741321    0.1200
     49 H49         0.1434    2.8094   47.9505 H       1  ZINC000463741321    0.1200
     50 H50        -0.0572    3.5776   50.2800 H       1  ZINC000463741321    0.1200
     51 H51        -2.2245    3.4477   51.4388 H       1  ZINC000463741321    0.1300
     52 H52        -5.6916    2.5593   48.7009 H       1  ZINC000463741321    0.0500
     53 H53        -5.2522    4.1558   49.3535 H       1  ZINC000463741321    0.0900
@<TRIPOS>BOND
     1     1     2    1
     2     1    29    1
     3     1    30    1
     4     1    31    1
     5     2     3    1
     6     2     4    1
     7     2    13    1
     8     4     5    1
     9     4    32    1
    10     4    33    1
    11     5     6    1
    12     5    34    1
    13     5    35    1
    14     6    11   ar
    15     6     7   ar
    16     7     8   ar
    17     7    36    1
    18     8     9   ar
    19     8    37    1
    20     9    10   ar
    21     9    38    1
    22    10    11   ar
    23    10    39    1
    24    11    12    1
    25    13    14    2
    26    13    15   am
    27    15    16    1
    28    15    40    1
    29    16    17    1
    30    16    28    1
    31    16    18    1
    32    18    19    1
    33    18    41    1
    34    18    42    1
    35    19    20    1
    36    19    43    1
    37    19    44    1
    38    20    21    1
    39    20    45    1
    40    20    46    1
    41    21    22    1
    42    21    28    1
    43    22    27   ar
    44    22    23   ar
    45    23    24   ar
    46    23    47    1
    47    24    25   ar
    48    24    48    1
    49    25    26   ar
    50    25    49    1
    51    26    27   ar
    52    26    50    1
    53    27    51    1
    54    28    52    1
    55    28    53    1
@<TRIPOS>SUBSTRUCTURE
     1 ZINC000463741321        1 TEMP              0 ****  ****    0 ROOT


##########                                Name:    ZINC000547864253
##########                DOCK_Rotatable_Bonds:                   6
##########                         Heavy_Atoms:                  30
##########                    Molecular_Weight:             422.548
##########                DOCK_Rotatable_Bonds:                   6
##########                       Formal_Charge:           0.0300002
##########                     HBond_Acceptors:                   6
##########                        HBond_Donors:                   2
##########                         Heavy_Atoms:                  30
##########                          Grid_Score:          -32.736874
##########                     Grid_vdw_energy:          -32.934063
##########                      Grid_es_energy:            0.197189
##########           Internal_energy_repulsive:           12.960191

@<TRIPOS>MOLECULE
ZINC000547864253
 56 60 1 0 0
SMALL
USER_CHARGES


@<TRIPOS>ATOM
      1 O1        -10.1345    0.7850   52.2283 O.2     1  ZINC000547864253   -0.5300
      2 C2         -9.2475    0.0572   52.6212 C.2     1  ZINC000547864253    0.5400
      3 N3         -9.3322   -0.5105   53.8407 N.am    1  ZINC000547864253   -0.7200
      4 C4        -10.4927   -0.2435   54.6939 C.3     1  ZINC000547864253    0.1300
      5 C5        -10.2609   -0.8562   56.0766 C.3     1  ZINC000547864253    0.0200
      6 H6         -9.6817   -1.7739   55.9748 H       1  ZINC000547864253    0.0900
      7 C7         -9.5055    0.1216   56.9392 C.2     1  ZINC000547864253   -0.1600
      8 C8         -8.8618    1.2231   56.5217 C.2     1  ZINC000547864253    0.0600
      9 N9         -8.2922    1.8632   57.5886 N.pl3   1  ZINC000547864253   -0.5900
     10 C10        -8.5622    1.1716   58.7482 C.ar    1  ZINC000547864253    0.1000
     11 C11        -8.2318    1.3752   60.0837 C.ar    1  ZINC000547864253   -0.1300
     12 C12        -8.6620    0.4804   61.0393 C.ar    1  ZINC000547864253   -0.1000
     13 C13        -9.4230   -0.6241   60.6831 C.ar    1  ZINC000547864253   -0.1400
     14 C14        -9.7592   -0.8435   59.3767 C.ar    1  ZINC000547864253   -0.0700
     15 C15        -9.3394    0.0537   58.3931 C.ar    1  ZINC000547864253   -0.1000
     16 C16       -11.5890   -1.1689   56.7166 C.ar    1  ZINC000547864253   -0.0700
     17 C17       -11.8342   -2.4339   57.2170 C.ar    1  ZINC000547864253   -0.1100
     18 C18       -13.0525   -2.7208   57.8041 C.ar    1  ZINC000547864253   -0.1200
     19 C19       -14.0252   -1.7424   57.8910 C.ar    1  ZINC000547864253   -0.1200
     20 C20       -13.7796   -0.4771   57.3914 C.ar    1  ZINC000547864253   -0.1100
     21 C21       -12.5598   -0.1891   56.8083 C.ar    1  ZINC000547864253   -0.1200
     22 C22        -8.0537   -0.2175   51.7434 C.3     1  ZINC000547864253   -0.1700
     23 H23        -8.1709   -1.0362   51.0333 H       1  ZINC000547864253    0.1400
     24 C24        -6.6662   -0.0021   52.3505 C.3     1  ZINC000547864253   -0.1300
     25 C25        -7.2062    0.9807   51.3074 C.3     1  ZINC000547864253   -0.1400
     26 C26        -6.5885    0.9326   49.9093 C.3     1  ZINC000547864253   -0.0700
     27 C27        -5.2712    1.7111   49.9003 C.3     1  ZINC000547864253   -0.6000
     28 S28        -5.5976    3.4426   50.3378 S.o2    1  ZINC000547864253    2.4200
     29 O29        -4.3549    4.1054   50.5263 O.2     1  ZINC000547864253   -0.9400
     30 O30        -6.5359    3.9754   49.4132 O.2     1  ZINC000547864253   -0.9300
     31 C31        -6.4097    3.2629   51.9518 C.3     1  ZINC000547864253   -0.6000
     32 C32        -7.6378    2.3627   51.7999 C.3     1  ZINC000547864253   -0.0700
     33 H33        -8.6247   -1.0958   54.1534 H       1  ZINC000547864253    0.4000
     34 H34       -10.6314    0.8331   54.7922 H       1  ZINC000547864253    0.0800
     35 H35       -11.3827   -0.6850   54.2455 H       1  ZINC000547864253    0.0700
     36 H36        -8.8021    1.5549   55.4956 H       1  ZINC000547864253    0.1700
     37 H37        -7.7752    2.6822   57.5358 H       1  ZINC000547864253    0.4200
     38 H38        -7.6396    2.2316   60.3709 H       1  ZINC000547864253    0.1200
     39 H39        -8.4040    0.6401   62.0757 H       1  ZINC000547864253    0.1300
     40 H40        -9.7519   -1.3160   61.4443 H       1  ZINC000547864253    0.1200
     41 H41       -10.3517   -1.7052   59.1070 H       1  ZINC000547864253    0.1200
     42 H42       -11.0742   -3.1983   57.1490 H       1  ZINC000547864253    0.1200
     43 H43       -13.2444   -3.7093   58.1944 H       1  ZINC000547864253    0.1200
     44 H44       -14.9772   -1.9667   58.3490 H       1  ZINC000547864253    0.1200
     45 H45       -14.5397    0.2871   57.4591 H       1  ZINC000547864253    0.1200
     46 H46       -12.3679    0.7994   56.4179 H       1  ZINC000547864253    0.1200
     47 H47        -6.6167    0.3383   53.3848 H       1  ZINC000547864253    0.1100
     48 H48        -5.8703   -0.6789   52.0396 H       1  ZINC000547864253    0.1100
     49 H49        -6.3988   -0.1044   49.6320 H       1  ZINC000547864253    0.0900
     50 H50        -7.2781    1.3785   49.1926 H       1  ZINC000547864253    0.0900
     51 H51        -4.5855    1.2750   50.6268 H       1  ZINC000547864253    0.1400
     52 H52        -4.8273    1.6643   48.9058 H       1  ZINC000547864253    0.1400
     53 H53        -5.7145    2.8139   52.6612 H       1  ZINC000547864253    0.1400
     54 H54        -6.7192    4.2430   52.3148 H       1  ZINC000547864253    0.1400
     55 H55        -8.3254    2.8060   51.0797 H       1  ZINC000547864253    0.0900
     56 H56        -8.1369    2.2646   52.7639 H       1  ZINC000547864253    0.0900
@<TRIPOS>BOND
     1     1     2    2
     2     2     3   am
     3     2    22    1
     4     3     4    1
     5     3    33    1
     6     4     5    1
     7     4    34    1
     8     4    35    1
     9     5     6    1
    10     5     7    1
    11     5    16    1
    12     7    15    1
    13     7     8    2
    14     8     9    1
    15     8    36    1
    16     9    10    1
    17     9    37    1
    18    10    15   ar
    19    10    11   ar
    20    11    12   ar
    21    11    38    1
    22    12    13   ar
    23    12    39    1
    24    13    14   ar
    25    13    40    1
    26    14    15   ar
    27    14    41    1
    28    16    21   ar
    29    16    17   ar
    30    17    18   ar
    31    17    42    1
    32    18    19   ar
    33    18    43    1
    34    19    20   ar
    35    19    44    1
    36    20    21   ar
    37    20    45    1
    38    21    46    1
    39    22    23    1
    40    22    25    1
    41    22    24    1
    42    24    25    1
    43    24    47    1
    44    24    48    1
    45    25    32    1
    46    25    26    1
    47    26    27    1
    48    26    49    1
    49    26    50    1
    50    27    28    1
    51    27    51    1
    52    27    52    1
    53    28    29    2
    54    28    30    2
    55    28    31    1
    56    31    32    1
    57    31    53    1
    58    31    54    1
    59    32    55    1
    60    32    56    1
@<TRIPOS>SUBSTRUCTURE
     1 ZINC000547864253        1 TEMP              0 ****  ****    0 ROOT


##########                                Name:    ZINC001570985666
##########                DOCK_Rotatable_Bonds:                   7
##########                         Heavy_Atoms:                  26
##########                    Molecular_Weight:             357.415
##########                DOCK_Rotatable_Bonds:                   7
##########                       Formal_Charge:          -0.0100001
##########                     HBond_Acceptors:                   9
##########                        HBond_Donors:                   3
##########                         Heavy_Atoms:                  26
##########                          Grid_Score:          -32.735207
##########                     Grid_vdw_energy:          -31.690702
##########                      Grid_es_energy:           -1.044503
##########           Internal_energy_repulsive:           10.496250

@<TRIPOS>MOLECULE
ZINC001570985666
 49 52 1 0 0
SMALL
USER_CHARGES


@<TRIPOS>ATOM
      1 C1         -8.7137    2.6684   53.6903 C.3     1  ZINC001570985666   -0.1600
      2 C2         -7.9617    1.3404   53.5815 C.3     1  ZINC001570985666    0.1300
      3 H3         -7.0716    1.3660   54.2100 H       1  ZINC001570985666    0.0800
      4 C4         -7.5607    1.0831   52.1136 C.3     1  ZINC001570985666    0.1400
      5 H5         -8.2101    1.6349   51.4340 H       1  ZINC001570985666    0.1100
      6 N6         -6.1573    1.4391   51.8898 N.am    1  ZINC001570985666   -0.7200
      7 C7         -5.7122    1.6708   50.6390 C.2     1  ZINC001570985666    0.6000
      8 O8         -6.4751    1.5831   49.6959 O.2     1  ZINC001570985666   -0.5300
      9 C9         -4.3014    2.0306   50.4141 C.2     1  ZINC001570985666   -0.2300
     10 C10        -3.4282    2.5482   51.3462 C.2     1  ZINC001570985666    0.0700
     11 N11        -2.2358    2.7389   50.7475 N.pl3   1  ZINC001570985666   -0.5200
     12 C12        -2.3215    2.3506   49.4332 C.2     1  ZINC001570985666    0.0600
     13 C13        -1.2237    2.4047   48.4420 C.2     1  ZINC001570985666    0.2500
     14 N14        -1.2813    2.0230   47.1801 N.2     1  ZINC001570985666   -0.3100
     15 N15        -0.1234    2.2293   46.6530 N.pl3   1  ZINC001570985666   -0.2200
     16 N16         0.6656    2.7290   47.5388 N.2     1  ZINC001570985666   -0.0400
     17 N17         0.0225    2.8566   48.6495 N.2     1  ZINC001570985666   -0.2600
     18 C18        -3.5811    1.9040   49.1980 C.2     1  ZINC001570985666   -0.0600
     19 C19        -7.7749   -0.4456   51.9577 C.3     1  ZINC001570985666   -0.1500
     20 C20        -9.0188   -0.6781   52.8513 C.3     1  ZINC001570985666    0.1000
     21 N21        -8.8366    0.2348   53.9985 N.am    1  ZINC001570985666   -0.6200
     22 C22        -9.3831    0.0792   55.2206 C.2     1  ZINC001570985666    0.5300
     23 O23        -9.1650    0.8954   56.0907 O.2     1  ZINC001570985666   -0.5300
     24 C24       -10.2653   -1.1088   55.5058 C.3     1  ZINC001570985666   -0.1300
     25 C25       -11.7041   -0.7850   55.0985 C.3     1  ZINC001570985666   -0.1000
     26 C26       -12.7420   -1.7639   55.6725 C.3     1  ZINC001570985666   -0.1300
     27 C27       -13.6467   -0.5431   55.9087 C.3     1  ZINC001570985666   -0.1400
     28 C28       -12.3616    0.2993   55.9685 C.3     1  ZINC001570985666   -0.1400
     29 H29        -8.9985    2.8407   54.7283 H       1  ZINC001570985666    0.0700
     30 H30        -8.0695    3.4795   53.3509 H       1  ZINC001570985666    0.0700
     31 H31        -9.6087    2.6311   53.0693 H       1  ZINC001570985666    0.0600
     32 H32        -5.5485    1.5080   52.6418 H       1  ZINC001570985666    0.4000
     33 H33        -3.6597    2.7646   52.3787 H       1  ZINC001570985666    0.1800
     34 H34        -1.4423    3.0945   51.1773 H       1  ZINC001570985666    0.4300
     35 H35         0.1161    2.0378   45.7327 H       1  ZINC001570985666    0.4800
     36 H36        -3.9648    1.5294   48.2605 H       1  ZINC001570985666    0.1600
     37 H37        -7.9845   -0.7069   50.9204 H       1  ZINC001570985666    0.0900
     38 H38        -6.9151   -1.0009   52.3327 H       1  ZINC001570985666    0.0800
     39 H39        -9.9292   -0.4279   52.3067 H       1  ZINC001570985666    0.0800
     40 H40        -9.0523   -1.7126   53.1930 H       1  ZINC001570985666    0.0800
     41 H41        -9.9116   -1.9688   54.9374 H       1  ZINC001570985666    0.0900
     42 H42       -10.2322   -1.3385   56.5708 H       1  ZINC001570985666    0.0900
     43 H43       -11.8118   -0.6105   54.0279 H       1  ZINC001570985666    0.1000
     44 H44       -13.1364   -2.4637   54.9357 H       1  ZINC001570985666    0.0700
     45 H45       -12.4194   -2.2527   56.5918 H       1  ZINC001570985666    0.0800
     46 H46       -14.2868   -0.3033   55.0597 H       1  ZINC001570985666    0.0800
     47 H47       -14.1900   -0.5784   56.8530 H       1  ZINC001570985666    0.0700
     48 H48       -11.9350    0.3745   56.9688 H       1  ZINC001570985666    0.0800
     49 H49       -12.4489    1.2650   55.4708 H       1  ZINC001570985666    0.0700
@<TRIPOS>BOND
     1     1     2    1
     2     1    29    1
     3     1    30    1
     4     1    31    1
     5     2     3    1
     6     2    21    1
     7     2     4    1
     8     4     5    1
     9     4     6    1
    10     4    19    1
    11     6     7   am
    12     6    32    1
    13     7     8    2
    14     7     9    1
    15     9    18    1
    16     9    10    2
    17    10    11    1
    18    10    33    1
    19    11    12    1
    20    11    34    1
    21    12    13    1
    22    12    18    2
    23    13    17    1
    24    13    14    2
    25    14    15    1
    26    15    16    1
    27    15    35    1
    28    16    17    2
    29    18    36    1
    30    19    20    1
    31    19    37    1
    32    19    38    1
    33    20    21    1
    34    20    39    1
    35    20    40    1
    36    21    22   am
    37    22    23    2
    38    22    24    1
    39    24    25    1
    40    24    41    1
    41    24    42    1
    42    25    28    1
    43    25    26    1
    44    25    43    1
    45    26    27    1
    46    26    44    1
    47    26    45    1
    48    27    28    1
    49    27    46    1
    50    27    47    1
    51    28    48    1
    52    28    49    1
@<TRIPOS>SUBSTRUCTURE
     1 ZINC001570985666        1 TEMP              0 ****  ****    0 ROOT


##########                                Name:    ZINC000179496896
##########                DOCK_Rotatable_Bonds:                   8
##########                         Heavy_Atoms:                  27
##########                    Molecular_Weight:             396.504
##########                DOCK_Rotatable_Bonds:                   8
##########                       Formal_Charge:          0.00999944
##########                     HBond_Acceptors:                   8
##########                        HBond_Donors:                   1
##########                         Heavy_Atoms:                  27
##########                          Grid_Score:          -32.727280
##########                     Grid_vdw_energy:          -32.092945
##########                      Grid_es_energy:           -0.634333
##########           Internal_energy_repulsive:           26.594641

@<TRIPOS>MOLECULE
ZINC000179496896
 53 55 1 0 0
SMALL
USER_CHARGES


@<TRIPOS>ATOM
      1 C1        -16.1730   -3.0225   57.9081 C.3     1  ZINC000179496896   -0.1500
      2 C2        -14.7288   -2.5174   57.9157 C.3     1  ZINC000179496896   -0.1100
      3 C3        -14.0752   -2.8618   59.2555 C.3     1  ZINC000179496896   -0.1400
      4 C4        -13.9490   -3.1850   56.7812 C.3     1  ZINC000179496896    0.1200
      5 N5        -12.5709   -2.6880   56.7775 N.pl3   1  ZINC000179496896   -0.3300
      6 N6        -11.5154   -3.1986   57.5414 N.2     1  ZINC000179496896   -0.2700
      7 C7        -10.4364   -2.5126   57.2831 C.2     1  ZINC000179496896    0.0800
      8 C8        -10.7655   -1.5227   56.3302 C.2     1  ZINC000179496896   -0.2500
      9 C9         -9.8472   -0.5244   55.7526 C.2     1  ZINC000179496896    0.5900
     10 O10        -9.3617    0.3368   56.4607 O.2     1  ZINC000179496896   -0.5300
     11 N11        -9.5457   -0.5662   54.4396 N.am    1  ZINC000179496896   -0.7100
     12 C12        -8.6345    0.4270   53.8653 C.3     1  ZINC000179496896    0.1300
     13 C13        -9.0761    0.7593   52.4386 C.3     1  ZINC000179496896    0.0700
     14 H14        -9.6154   -0.0895   52.0182 H       1  ZINC000179496896    0.0900
     15 C15        -9.9917    1.9849   52.4605 C.3     1  ZINC000179496896   -0.1900
     16 N16        -7.8944    1.0456   51.6143 N.3     1  ZINC000179496896   -0.5300
     17 C17        -7.2037   -0.1952   51.2350 C.3     1  ZINC000179496896    0.0600
     18 C18        -6.2441    0.0993   50.0755 C.3     1  ZINC000179496896   -0.0400
     19 C19        -5.4277    1.3213   50.4404 C.2     1  ZINC000179496896   -0.1700
     20 C20        -5.7475    2.1705   51.4371 C.2     1  ZINC000179496896   -0.1100
     21 C21        -4.8474    3.2193   51.5865 C.2     1  ZINC000179496896   -0.1200
     22 C22        -3.8246    3.2259   50.7362 C.2     1  ZINC000179496896   -0.2200
     23 S23        -3.9486    1.8467   49.6533 S.3     1  ZINC000179496896    0.1000
     24 C24        -6.9859    1.9737   52.3009 C.3     1  ZINC000179496896    0.1200
     25 C25       -12.1063   -1.6696   56.0362 C.2     1  ZINC000179496896    0.0700
     26 C26       -12.9040   -0.8339   55.0688 C.3     1  ZINC000179496896    0.3400
     27 F27       -14.2204   -0.7178   55.5280 F       1  ZINC000179496896   -0.1500
     28 F28       -12.3310    0.4386   54.9692 F       1  ZINC000179496896   -0.2000
     29 H29       -16.7285   -2.5469   58.7164 H       1  ZINC000179496896    0.0600
     30 H30       -16.6386   -2.7771   56.9536 H       1  ZINC000179496896    0.0600
     31 H31       -16.1807   -4.1033   58.0489 H       1  ZINC000179496896    0.0600
     32 H32       -14.7212   -1.4365   57.7749 H       1  ZINC000179496896    0.0800
     33 H33       -14.0828   -3.9427   59.3962 H       1  ZINC000179496896    0.0600
     34 H34       -13.0462   -2.5020   59.2609 H       1  ZINC000179496896    0.0600
     35 H35       -14.6306   -2.3862   60.0638 H       1  ZINC000179496896    0.0700
     36 H36       -13.9453   -4.2649   56.9292 H       1  ZINC000179496896    0.1000
     37 H37       -14.4224   -2.9505   55.8278 H       1  ZINC000179496896    0.1000
     38 H38        -9.4623   -2.6730   57.7211 H       1  ZINC000179496896    0.2000
     39 H39        -9.9320   -1.2538   53.8749 H       1  ZINC000179496896    0.4100
     40 H40        -8.6547    1.3322   54.4721 H       1  ZINC000179496896    0.0700
     41 H41        -7.6220    0.0238   53.8477 H       1  ZINC000179496896    0.0700
     42 H42       -10.3063    2.2217   51.4442 H       1  ZINC000179496896    0.0600
     43 H43       -10.8685    1.7725   53.0723 H       1  ZINC000179496896    0.0700
     44 H44        -9.4524    2.8338   52.8810 H       1  ZINC000179496896    0.0600
     45 H45        -6.6397   -0.5737   52.0875 H       1  ZINC000179496896    0.0400
     46 H46        -7.9362   -0.9390   50.9218 H       1  ZINC000179496896    0.0900
     47 H47        -5.5822   -0.7526   49.9199 H       1  ZINC000179496896    0.0800
     48 H48        -6.8136    0.2948   49.1670 H       1  ZINC000179496896    0.0900
     49 H49        -4.9707    3.9794   52.3436 H       1  ZINC000179496896    0.1400
     50 H50        -3.0379    3.9656   50.7145 H       1  ZINC000179496896    0.1600
     51 H51        -7.4847    2.9315   52.4489 H       1  ZINC000179496896    0.0900
     52 H52        -6.6966    1.5561   53.2653 H       1  ZINC000179496896    0.0500
     53 H53       -12.9019   -1.3109   54.0887 H       1  ZINC000179496896    0.1300
@<TRIPOS>BOND
     1     1     2    1
     2     1    29    1
     3     1    30    1
     4     1    31    1
     5     2     3    1
     6     2     4    1
     7     2    32    1
     8     3    33    1
     9     3    34    1
    10     3    35    1
    11     4     5    1
    12     4    36    1
    13     4    37    1
    14     5    25    1
    15     5     6    1
    16     6     7    2
    17     7     8    1
    18     7    38    1
    19     8     9    1
    20     8    25    2
    21     9    10    2
    22     9    11   am
    23    11    12    1
    24    11    39    1
    25    12    13    1
    26    12    40    1
    27    12    41    1
    28    13    14    1
    29    13    15    1
    30    13    16    1
    31    15    42    1
    32    15    43    1
    33    15    44    1
    34    16    24    1
    35    16    17    1
    36    17    18    1
    37    17    45    1
    38    17    46    1
    39    18    19    1
    40    18    47    1
    41    18    48    1
    42    19    23    1
    43    19    20    2
    44    20    21    1
    45    20    24    1
    46    21    22    2
    47    21    49    1
    48    22    23    1
    49    22    50    1
    50    24    51    1
    51    24    52    1
    52    25    26    1
    53    26    27    1
    54    26    28    1
    55    26    53    1
@<TRIPOS>SUBSTRUCTURE
     1 ZINC000179496896        1 TEMP              0 ****  ****    0 ROOT


##########                                Name:    ZINC000451019064
##########                DOCK_Rotatable_Bonds:                   8
##########                         Heavy_Atoms:                  23
##########                    Molecular_Weight:             346.534
##########                DOCK_Rotatable_Bonds:                   8
##########                       Formal_Charge:          -0.0200008
##########                     HBond_Acceptors:                   6
##########                        HBond_Donors:                   1
##########                         Heavy_Atoms:                  23
##########                          Grid_Score:          -32.726822
##########                     Grid_vdw_energy:          -33.624321
##########                      Grid_es_energy:            0.897501
##########           Internal_energy_repulsive:            5.681233

@<TRIPOS>MOLECULE
ZINC000451019064
 57 58 1 0 0
SMALL
USER_CHARGES


@<TRIPOS>ATOM
      1 C1         -2.7593    2.7351   49.0113 C.3     1  ZINC000451019064   -0.1500
      2 C2         -3.9652    2.7611   49.9527 C.3     1  ZINC000451019064    0.0900
      3 H3         -3.6282    2.9573   50.9705 H       1  ZINC000451019064    0.0700
      4 C4         -4.6816    1.4089   49.9030 C.3     1  ZINC000451019064    0.0200
      5 N5         -5.8823    1.4649   50.7494 N.3     1  ZINC000451019064   -0.5400
      6 C6         -6.5696    0.1669   50.7747 C.3     1  ZINC000451019064    0.0600
      7 C7         -7.0435   -0.1315   52.1986 C.3     1  ZINC000451019064   -0.1300
      8 C8         -8.5686   -0.0269   52.2610 C.3     1  ZINC000451019064    0.1100
      9 N9         -9.0184   -0.2615   53.6353 N.am    1  ZINC000451019064   -1.1200
     10 S10       -10.3916    0.4762   54.1945 S.o2    1  ZINC000451019064    2.6100
     11 O11       -10.0832    1.8629   54.1602 O.2     1  ZINC000451019064   -0.9600
     12 O12       -11.4315   -0.0633   53.3903 O.2     1  ZINC000451019064   -0.9500
     13 C13       -10.5486   -0.0988   55.9078 C.3     1  ZINC000451019064   -0.6300
     14 C14        -9.3982    0.4667   56.7431 C.3     1  ZINC000451019064   -0.1100
     15 C15        -9.2897   -0.3124   58.0553 C.3     1  ZINC000451019064   -0.0800
     16 C16        -8.0717    0.1782   58.8405 C.3     1  ZINC000451019064   -0.1200
     17 C17        -7.9630   -0.6009   60.1528 C.3     1  ZINC000451019064   -0.1200
     18 C18        -9.2285   -0.3794   60.9836 C.3     1  ZINC000451019064   -0.1200
     19 C19       -10.4466   -0.8700   60.1985 C.3     1  ZINC000451019064   -0.1200
     20 C20       -10.5551   -0.0908   58.8862 C.3     1  ZINC000451019064   -0.1200
     21 C21        -6.7879    2.5320   50.2991 C.3     1  ZINC000451019064    0.0200
     22 C22        -6.0504    3.8728   50.3447 C.3     1  ZINC000451019064    0.0900
     23 H23        -5.7747    4.1018   51.3741 H       1  ZINC000451019064    0.0700
     24 C24        -6.9615    4.9759   49.8024 C.3     1  ZINC000451019064   -0.1500
     25 O25        -4.8694    3.7902   49.5422 O.3     1  ZINC000451019064   -0.3800
     26 H26        -2.2506    3.6986   49.0459 H       1  ZINC000451019064    0.0700
     27 H27        -2.0714    1.9496   49.3238 H       1  ZINC000451019064    0.0700
     28 H28        -3.0969    2.5388   47.9937 H       1  ZINC000451019064    0.0600
     29 H29        -4.9706    1.1876   48.8756 H       1  ZINC000451019064    0.0400
     30 H30        -4.0137    0.6296   50.2699 H       1  ZINC000451019064    0.0900
     31 H31        -7.4289    0.1977   50.1048 H       1  ZINC000451019064    0.0400
     32 H32        -5.8828   -0.6143   50.4492 H       1  ZINC000451019064    0.0800
     33 H33        -6.7366   -1.1388   52.4800 H       1  ZINC000451019064    0.0800
     34 H34        -6.6015    0.5887   52.8871 H       1  ZINC000451019064    0.0800
     35 H35        -8.8778    0.9686   51.9424 H       1  ZINC000451019064    0.0800
     36 H36        -9.0112   -0.7733   51.6014 H       1  ZINC000451019064    0.0700
     37 H37        -8.5119   -0.8490   54.2179 H       1  ZINC000451019064    0.4200
     38 H38       -11.4986    0.2420   56.3198 H       1  ZINC000451019064    0.1300
     39 H39       -10.5128   -1.1880   55.9303 H       1  ZINC000451019064    0.1400
     40 H40        -8.4654    0.3736   56.1869 H       1  ZINC000451019064    0.0800
     41 H41        -9.5888    1.5180   56.9594 H       1  ZINC000451019064    0.0800
     42 H42        -9.1785   -1.3749   57.8389 H       1  ZINC000451019064    0.0800
     43 H43        -7.1701    0.0204   58.2486 H       1  ZINC000451019064    0.0600
     44 H44        -8.1828    1.2407   59.0569 H       1  ZINC000451019064    0.0700
     45 H45        -7.8519   -1.6634   59.9363 H       1  ZINC000451019064    0.0600
     46 H46        -7.0953   -0.2514   60.7122 H       1  ZINC000451019064    0.0600
     47 H47        -9.1512   -0.9344   61.9185 H       1  ZINC000451019064    0.0600
     48 H48        -9.3397    0.6831   61.2001 H       1  ZINC000451019064    0.0600
     49 H49       -10.3355   -1.9325   59.9820 H       1  ZINC000451019064    0.0600
     50 H50       -11.3482   -0.7122   60.7904 H       1  ZINC000451019064    0.0600
     51 H51       -10.6663    0.9716   59.1026 H       1  ZINC000451019064    0.0700
     52 H52       -11.4229   -0.4404   58.3269 H       1  ZINC000451019064    0.0600
     53 H53        -7.1104    2.3286   49.2780 H       1  ZINC000451019064    0.0400
     54 H54        -7.6574    2.5724   50.9550 H       1  ZINC000451019064    0.0900
     55 H55        -7.8623    5.0360   50.4133 H       1  ZINC000451019064    0.0700
     56 H56        -6.4359    5.9302   49.8352 H       1  ZINC000451019064    0.0700
     57 H57        -7.2356    4.7471   48.7725 H       1  ZINC000451019064    0.0600
@<TRIPOS>BOND
     1     1     2    1
     2     1    26    1
     3     1    27    1
     4     1    28    1
     5     2     3    1
     6     2    25    1
     7     2     4    1
     8     4     5    1
     9     4    29    1
    10     4    30    1
    11     5     6    1
    12     5    21    1
    13     6     7    1
    14     6    31    1
    15     6    32    1
    16     7     8    1
    17     7    33    1
    18     7    34    1
    19     8     9    1
    20     8    35    1
    21     8    36    1
    22     9    10   am
    23     9    37    1
    24    10    11    2
    25    10    12    2
    26    10    13    1
    27    13    14    1
    28    13    38    1
    29    13    39    1
    30    14    15    1
    31    14    40    1
    32    14    41    1
    33    15    20    1
    34    15    16    1
    35    15    42    1
    36    16    17    1
    37    16    43    1
    38    16    44    1
    39    17    18    1
    40    17    45    1
    41    17    46    1
    42    18    19    1
    43    18    47    1
    44    18    48    1
    45    19    20    1
    46    19    49    1
    47    19    50    1
    48    20    51    1
    49    20    52    1
    50    21    22    1
    51    21    53    1
    52    21    54    1
    53    22    23    1
    54    22    24    1
    55    22    25    1
    56    24    55    1
    57    24    56    1
    58    24    57    1
@<TRIPOS>SUBSTRUCTURE
     1 ZINC000451019064        1 TEMP              0 ****  ****    0 ROOT


##########                                Name:    ZINC001018437438
##########                DOCK_Rotatable_Bonds:                   8
##########                         Heavy_Atoms:                  24
##########                    Molecular_Weight:              333.39
##########                DOCK_Rotatable_Bonds:                   8
##########                       Formal_Charge:        -4.17233e-07
##########                     HBond_Acceptors:                   8
##########                        HBond_Donors:                   4
##########                         Heavy_Atoms:                  24
##########                          Grid_Score:          -32.714539
##########                     Grid_vdw_energy:          -31.471619
##########                      Grid_es_energy:           -1.242920
##########           Internal_energy_repulsive:           87.517151

@<TRIPOS>MOLECULE
ZINC001018437438
 47 49 1 0 0
SMALL
USER_CHARGES


@<TRIPOS>ATOM
      1 C1        -12.8254   -2.3670   59.8899 C.3     1  ZINC001018437438   -0.1400
      2 C2        -12.0098   -2.5361   58.6066 C.3     1  ZINC001018437438    0.1400
      3 H3        -11.6975   -3.5756   58.5065 H       1  ZINC001018437438    0.0700
      4 C4        -12.8639   -2.1379   57.3989 C.3     1  ZINC001018437438   -0.1300
      5 C5        -12.0022   -2.1757   56.1348 C.3     1  ZINC001018437438   -0.1300
      6 C6        -10.8550   -1.1713   56.2673 C.3     1  ZINC001018437438    0.1300
      7 H7        -11.2623   -0.1725   56.4235 H       1  ZINC001018437438    0.1000
      8 N8        -10.0494   -1.1851   55.0438 N.am    1  ZINC001018437438   -0.7200
      9 C9         -9.2961   -0.1152   54.7209 C.2     1  ZINC001018437438    0.6000
     10 O10        -9.2840    0.8613   55.4460 O.2     1  ZINC001018437438   -0.5100
     11 C11        -8.4882   -0.1283   53.4909 C.2     1  ZINC001018437438   -0.0400
     12 C12        -7.3498    0.6168   53.2369 C.2     1  ZINC001018437438   -0.1400
     13 C13        -6.9524    0.2570   51.9471 C.2     1  ZINC001018437438    0.0600
     14 C14        -5.7558    0.7941   51.2051 C.3     1  ZINC001018437438   -0.0800
     15 C15        -5.6645    0.5021   49.7060 C.3     1  ZINC001018437438   -0.1700
     16 C16        -5.9975    1.9144   50.1913 C.3     1  ZINC001018437438   -0.1600
     17 N17        -7.8032   -0.6300   51.4977 N.2     1  ZINC001018437438   -0.2600
     18 N18        -8.7082   -0.8826   52.3736 N.pl3   1  ZINC001018437438   -0.3800
     19 C19        -9.9781   -1.5586   57.4621 C.3     1  ZINC001018437438    0.1000
     20 N20       -10.8251   -1.6687   58.6581 N.am    1  ZINC001018437438   -0.6100
     21 C21       -10.5235   -0.9832   59.7786 C.2     1  ZINC001018437438    0.5200
     22 O22       -11.2331   -1.0789   60.7575 O.2     1  ZINC001018437438   -0.4800
     23 C23        -9.3046   -0.0977   59.8151 C.3     1  ZINC001018437438   -0.1700
     24 C24        -9.1167    0.4411   61.2100 C.2     1  ZINC001018437438    0.5200
     25 N25        -8.6451   -0.3616   62.1845 N.am    1  ZINC001018437438   -0.8600
     26 O26        -9.3899    1.5969   61.4555 O.2     1  ZINC001018437438   -0.5000
     27 H27       -13.0513   -1.3113   60.0404 H       1  ZINC001018437438    0.0700
     28 H28       -13.7555   -2.9291   59.8060 H       1  ZINC001018437438    0.0500
     29 H29       -12.2507   -2.7400   60.7376 H       1  ZINC001018437438    0.0800
     30 H30       -13.6941   -2.8365   57.2943 H       1  ZINC001018437438    0.0900
     31 H31       -13.2523   -1.1299   57.5445 H       1  ZINC001018437438    0.0700
     32 H32       -11.5941   -3.1779   56.0034 H       1  ZINC001018437438    0.0700
     33 H33       -12.6136   -1.9167   55.2705 H       1  ZINC001018437438    0.0800
     34 H34       -10.0581   -1.9642   54.4660 H       1  ZINC001018437438    0.4000
     35 H35        -6.8707    1.3258   53.8957 H       1  ZINC001018437438    0.1700
     36 H36        -4.8244    0.8198   51.7709 H       1  ZINC001018437438    0.1200
     37 H37        -4.6729    0.3354   49.2852 H       1  ZINC001018437438    0.1000
     38 H38        -6.4700   -0.0786   49.2565 H       1  ZINC001018437438    0.1000
     39 H39        -7.0221    2.2628   50.0611 H       1  ZINC001018437438    0.1000
     40 H40        -5.2251    2.6766   50.0899 H       1  ZINC001018437438    0.1000
     41 H41        -9.4400   -1.5083   52.2567 H       1  ZINC001018437438    0.4400
     42 H42        -9.4980   -2.5176   57.2674 H       1  ZINC001018437438    0.0700
     43 H43        -9.2186   -0.7931   57.6213 H       1  ZINC001018437438    0.0900
     44 H44        -8.4265   -0.6762   59.5278 H       1  ZINC001018437438    0.1200
     45 H45        -9.4368    0.7314   59.1201 H       1  ZINC001018437438    0.1200
     46 H46        -8.5252   -0.0154   63.0825 H       1  ZINC001018437438    0.4000
     47 H47        -8.4254   -1.2857   61.9877 H       1  ZINC001018437438    0.4000
@<TRIPOS>BOND
     1     1     2    1
     2     1    27    1
     3     1    28    1
     4     1    29    1
     5     2     3    1
     6     2    20    1
     7     2     4    1
     8     4     5    1
     9     4    30    1
    10     4    31    1
    11     5     6    1
    12     5    32    1
    13     5    33    1
    14     6     7    1
    15     6     8    1
    16     6    19    1
    17     8     9   am
    18     8    34    1
    19     9    10    2
    20     9    11    1
    21    11    18    1
    22    11    12    2
    23    12    13    1
    24    12    35    1
    25    13    14    1
    26    13    17    2
    27    14    16    1
    28    14    15    1
    29    14    36    1
    30    15    16    1
    31    15    37    1
    32    15    38    1
    33    16    39    1
    34    16    40    1
    35    17    18    1
    36    18    41    1
    37    19    20    1
    38    19    42    1
    39    19    43    1
    40    20    21   am
    41    21    22    2
    42    21    23    1
    43    23    24    1
    44    23    44    1
    45    23    45    1
    46    24    25   am
    47    24    26    2
    48    25    46    1
    49    25    47    1
@<TRIPOS>SUBSTRUCTURE
     1 ZINC001018437438        1 TEMP              0 ****  ****    0 ROOT


##########                                Name:    ZINC000442010511
##########                DOCK_Rotatable_Bonds:                  11
##########                         Heavy_Atoms:                  31
##########                    Molecular_Weight:             422.481
##########                DOCK_Rotatable_Bonds:                  11
##########                       Formal_Charge:          -0.0200005
##########                     HBond_Acceptors:                   7
##########                        HBond_Donors:                   2
##########                         Heavy_Atoms:                  31
##########                          Grid_Score:          -32.714115
##########                     Grid_vdw_energy:          -32.517139
##########                      Grid_es_energy:           -0.196976
##########           Internal_energy_repulsive:           10.138543

@<TRIPOS>MOLECULE
ZINC000442010511
 57 59 1 0 0
SMALL
USER_CHARGES


@<TRIPOS>ATOM
      1 C1         -8.8775    1.1810   62.8585 C.3     1  ZINC000442010511   -0.1500
      2 C2         -9.4522   -0.2243   62.6699 C.3     1  ZINC000442010511   -0.0500
      3 C3         -9.4225   -0.5871   61.2075 C.2     1  ZINC000442010511    0.0000
      4 C4         -8.4440   -0.2742   60.3392 C.2     1  ZINC000442010511   -0.2100
      5 C5         -8.8227   -0.8075   59.0858 C.2     1  ZINC000442010511   -0.1900
      6 C6        -10.0100   -1.4143   59.2631 C.2     1  ZINC000442010511   -0.0300
      7 C7        -10.8031   -2.1273   58.1984 C.3     1  ZINC000442010511    0.2400
      8 H8        -10.1543   -2.8238   57.6674 H       1  ZINC000442010511    0.1400
      9 C9        -11.9539   -2.8971   58.8492 C.3     1  ZINC000442010511    0.0500
     10 O10       -12.6996   -3.5817   57.8406 O.3     1  ZINC000442010511   -0.3800
     11 C11       -13.9869   -3.0164   57.5851 C.3     1  ZINC000442010511    0.0300
     12 N12       -11.3441   -1.1469   57.2536 N.am    1  ZINC000442010511   -0.6900
     13 C13       -10.8290   -1.0522   56.0118 C.2     1  ZINC000442010511    0.5200
     14 O14        -9.9160   -1.7782   55.6766 O.2     1  ZINC000442010511   -0.5100
     15 C15       -11.3816   -0.0542   55.0482 C.2     1  ZINC000442010511    0.5100
     16 O16       -12.1537    0.7992   55.4344 O.2     1  ZINC000442010511   -0.5000
     17 N17       -11.0233   -0.1009   53.7498 N.am    1  ZINC000442010511   -0.6300
     18 C18       -11.5408    0.8337   52.8474 C.ar    1  ZINC000442010511    0.1200
     19 C19       -12.8167    0.6669   52.3281 C.ar    1  ZINC000442010511   -0.1000
     20 C20       -13.3258    1.5920   51.4364 C.ar    1  ZINC000442010511   -0.1300
     21 C21       -12.5670    2.6847   51.0595 C.ar    1  ZINC000442010511   -0.0900
     22 C22       -11.2946    2.8580   51.5720 C.ar    1  ZINC000442010511   -0.1700
     23 C23       -10.7786    1.9390   52.4712 C.ar    1  ZINC000442010511    0.1000
     24 O24        -9.5278    2.1078   52.9760 O.3     1  ZINC000442010511   -0.2600
     25 C25        -8.4754    1.6838   52.2283 C.ar    1  ZINC000442010511    0.0800
     26 C26        -7.9147    2.5246   51.2775 C.ar    1  ZINC000442010511   -0.1300
     27 C27        -6.8447    2.0913   50.5190 C.ar    1  ZINC000442010511   -0.1100
     28 C28        -6.3326    0.8205   50.7062 C.ar    1  ZINC000442010511   -0.0800
     29 C29        -5.1656    0.3502   49.8769 C.3     1  ZINC000442010511   -0.1200
     30 C30        -6.8892   -0.0192   51.6533 C.ar    1  ZINC000442010511   -0.1100
     31 C31        -7.9560    0.4112   52.4181 C.ar    1  ZINC000442010511   -0.1100
     32 O32       -10.3656   -1.2825   60.5515 O.3     1  ZINC000442010511   -0.1600
     33 H33        -7.8486    1.2040   62.4994 H       1  ZINC000442010511    0.0600
     34 H34        -9.4753    1.8968   62.2944 H       1  ZINC000442010511    0.0600
     35 H35        -8.8990    1.4434   63.9163 H       1  ZINC000442010511    0.0700
     36 H36        -8.8545   -0.9401   63.2341 H       1  ZINC000442010511    0.0900
     37 H37       -10.4811   -0.2473   63.0291 H       1  ZINC000442010511    0.0800
     38 H38        -7.5423    0.2787   60.5574 H       1  ZINC000442010511    0.1500
     39 H39        -8.2658   -0.7401   58.1628 H       1  ZINC000442010511    0.1500
     40 H40       -11.5519   -3.6209   59.5581 H       1  ZINC000442010511    0.0700
     41 H41       -12.6072   -2.1994   59.3733 H       1  ZINC000442010511    0.0700
     42 H42       -14.4891   -3.5926   56.8079 H       1  ZINC000442010511    0.0900
     43 H43       -14.5822   -3.0411   58.4977 H       1  ZINC000442010511    0.0400
     44 H44       -13.8712   -1.9842   57.2545 H       1  ZINC000442010511    0.0400
     45 H45       -12.0730   -0.5658   57.5219 H       1  ZINC000442010511    0.4200
     46 H46       -10.4064   -0.7829   53.4413 H       1  ZINC000442010511    0.4300
     47 H47       -13.4117   -0.1857   52.6203 H       1  ZINC000442010511    0.1600
     48 H48       -14.3189    1.4609   51.0326 H       1  ZINC000442010511    0.1300
     49 H49       -12.9693    3.4048   50.3624 H       1  ZINC000442010511    0.1300
     50 H50       -10.7046    3.7123   51.2748 H       1  ZINC000442010511    0.1300
     51 H51        -8.3148    3.5170   51.1304 H       1  ZINC000442010511    0.1300
     52 H52        -6.4079    2.7453   49.7789 H       1  ZINC000442010511    0.1300
     53 H53        -4.2343    0.6028   50.3840 H       1  ZINC000442010511    0.0700
     54 H54        -5.2257   -0.7300   49.7446 H       1  ZINC000442010511    0.0700
     55 H55        -5.1924    0.8377   48.9023 H       1  ZINC000442010511    0.0700
     56 H56        -6.4874   -1.0112   51.7975 H       1  ZINC000442010511    0.1300
     57 H57        -8.3902   -0.2451   53.1579 H       1  ZINC000442010511    0.1300
@<TRIPOS>BOND
     1     1     2    1
     2     1    33    1
     3     1    34    1
     4     1    35    1
     5     2     3    1
     6     2    36    1
     7     2    37    1
     8     3    32    1
     9     3     4    2
    10     4     5    1
    11     4    38    1
    12     5     6    2
    13     5    39    1
    14     6     7    1
    15     6    32    1
    16     7     8    1
    17     7     9    1
    18     7    12    1
    19     9    10    1
    20     9    40    1
    21     9    41    1
    22    10    11    1
    23    11    42    1
    24    11    43    1
    25    11    44    1
    26    12    13   am
    27    12    45    1
    28    13    14    2
    29    13    15    1
    30    15    16    2
    31    15    17   am
    32    17    18    1
    33    17    46    1
    34    18    23   ar
    35    18    19   ar
    36    19    20   ar
    37    19    47    1
    38    20    21   ar
    39    20    48    1
    40    21    22   ar
    41    21    49    1
    42    22    23   ar
    43    22    50    1
    44    23    24    1
    45    24    25    1
    46    25    31   ar
    47    25    26   ar
    48    26    27   ar
    49    26    51    1
    50    27    28   ar
    51    27    52    1
    52    28    29    1
    53    28    30   ar
    54    29    53    1
    55    29    54    1
    56    29    55    1
    57    30    31   ar
    58    30    56    1
    59    31    57    1
@<TRIPOS>SUBSTRUCTURE
     1 ZINC000442010511        1 TEMP              0 ****  ****    0 ROOT


##########                                Name:    ZINC001120957943
##########                DOCK_Rotatable_Bonds:                   4
##########                         Heavy_Atoms:                  27
##########                    Molecular_Weight:             396.802
##########                DOCK_Rotatable_Bonds:                   4
##########                       Formal_Charge:          -0.0199996
##########                     HBond_Acceptors:                  10
##########                        HBond_Donors:                   0
##########                         Heavy_Atoms:                  27
##########                          Grid_Score:          -32.711018
##########                     Grid_vdw_energy:          -31.861639
##########                      Grid_es_energy:           -0.849377
##########           Internal_energy_repulsive:            8.820752

@<TRIPOS>MOLECULE
ZINC001120957943
 43 46 1 0 0
SMALL
USER_CHARGES


@<TRIPOS>ATOM
      1 C1         -9.9487   -1.1191   54.6551 C.3     1  ZINC001120957943    0.0900
      2 N2         -9.2242    0.1359   54.4402 N.pl3   1  ZINC001120957943   -0.6000
      3 C3         -9.4419    1.2709   55.3406 C.3     1  ZINC001120957943    0.2200
      4 C4         -8.5866    1.1076   56.5705 C.2     1  ZINC001120957943    0.1600
      5 N5         -7.3125    1.3866   56.6743 N.2     1  ZINC001120957943   -0.2500
      6 N6         -6.9053    1.1247   57.8690 N.2     1  ZINC001120957943   -0.2800
      7 C7         -7.8960    0.6694   58.5740 C.2     1  ZINC001120957943    0.1700
      8 C8         -7.8982    0.2291   60.0163 C.3     1  ZINC001120957943   -0.0300
      9 C9         -9.1741   -0.5865   60.2646 C.3     1  ZINC001120957943   -0.1300
     10 C10       -10.3802    0.1800   59.7141 C.3     1  ZINC001120957943   -0.1500
     11 H11       -10.3638    1.2023   60.0921 H       1  ZINC001120957943    0.1300
     12 C12       -11.6702   -0.5089   60.1636 C.3     1  ZINC001120957943    0.4600
     13 F13       -11.7324   -0.5163   61.5611 F       1  ZINC001120957943   -0.1700
     14 F14       -12.7721    0.1846   59.6514 F       1  ZINC001120957943   -0.1800
     15 F15       -11.6858   -1.8249   59.6891 F       1  ZINC001120957943   -0.1800
     16 C16       -10.3201    0.2010   58.1823 C.3     1  ZINC001120957943    0.1100
     17 N17        -8.9907    0.6522   57.7721 N.pl3   1  ZINC001120957943   -0.4700
     18 C18        -8.3321    0.2496   53.3842 C.ar    1  ZINC001120957943    0.3700
     19 C19        -8.4435   -0.6144   52.2808 C.ar    1  ZINC001120957943    0.0500
     20 N20        -7.6095   -0.5215   51.2732 N.ar    1  ZINC001120957943   -0.3900
     21 C21        -6.6417    0.4036   51.2920 C.ar    1  ZINC001120957943    0.0400
     22 C22        -5.7359    0.5240   50.2247 C.ar    1  ZINC001120957943   -0.0600
     23 C23        -4.7611    1.4745   50.2699 C.ar    1  ZINC001120957943   -0.0400
     24 Cl24       -3.6447    1.6188   48.9484 Cl      1  ZINC001120957943   -0.0600
     25 C25        -4.6478    2.3335   51.3626 C.ar    1  ZINC001120957943   -0.0800
     26 C26        -5.5077    2.2452   52.4137 C.ar    1  ZINC001120957943   -0.0800
     27 C27        -6.5259    1.2764   52.4022 C.ar    1  ZINC001120957943    0.1400
     28 N28        -7.3887    1.1715   53.4204 N.ar    1  ZINC001120957943   -0.4700
     29 H29       -10.8881   -1.0956   54.1026 H       1  ZINC001120957943    0.0700
     30 H30        -9.3418   -1.9537   54.3043 H       1  ZINC001120957943    0.0800
     31 H31       -10.1555   -1.2419   55.7183 H       1  ZINC001120957943    0.0700
     32 H32        -9.1726    2.1959   54.8308 H       1  ZINC001120957943    0.1200
     33 H33       -10.4920    1.3083   55.6306 H       1  ZINC001120957943    0.1000
     34 H34        -7.0222   -0.3888   60.2138 H       1  ZINC001120957943    0.1100
     35 H35        -7.8873    1.1029   60.6678 H       1  ZINC001120957943    0.1000
     36 H36        -9.0942   -1.5497   59.7606 H       1  ZINC001120957943    0.0900
     37 H37        -9.3019   -0.7453   61.3355 H       1  ZINC001120957943    0.1000
     38 H38       -10.5055   -0.8010   57.7954 H       1  ZINC001120957943    0.1000
     39 H39       -11.0721    0.8892   57.7963 H       1  ZINC001120957943    0.1100
     40 H40        -9.2228   -1.3618   52.2630 H       1  ZINC001120957943    0.1700
     41 H41        -5.8121   -0.1345   49.3721 H       1  ZINC001120957943    0.1500
     42 H42        -3.8664    3.0790   51.3751 H       1  ZINC001120957943    0.1400
     43 H43        -5.4080    2.9168   53.2536 H       1  ZINC001120957943    0.1500
@<TRIPOS>BOND
     1     1     2    1
     2     1    29    1
     3     1    30    1
     4     1    31    1
     5     2     3    1
     6     2    18    1
     7     3     4    1
     8     3    32    1
     9     3    33    1
    10     4    17    1
    11     4     5    2
    12     5     6    1
    13     6     7    2
    14     7    17    1
    15     7     8    1
    16     8     9    1
    17     8    34    1
    18     8    35    1
    19     9    10    1
    20     9    36    1
    21     9    37    1
    22    10    11    1
    23    10    12    1
    24    10    16    1
    25    12    13    1
    26    12    14    1
    27    12    15    1
    28    16    17    1
    29    16    38    1
    30    16    39    1
    31    18    28   ar
    32    18    19   ar
    33    19    20   ar
    34    19    40    1
    35    20    21   ar
    36    21    27   ar
    37    21    22   ar
    38    22    23   ar
    39    22    41    1
    40    23    24    1
    41    23    25   ar
    42    25    26   ar
    43    25    42    1
    44    26    27   ar
    45    26    43    1
    46    27    28   ar
@<TRIPOS>SUBSTRUCTURE
     1 ZINC001120957943        1 TEMP              0 ****  ****    0 ROOT


##########                                Name:    ZINC000867639366
##########                DOCK_Rotatable_Bonds:                   6
##########                         Heavy_Atoms:                  25
##########                    Molecular_Weight:             388.509
##########                DOCK_Rotatable_Bonds:                   6
##########                       Formal_Charge:          0.00999961
##########                     HBond_Acceptors:                   9
##########                        HBond_Donors:                   1
##########                         Heavy_Atoms:                  25
##########                          Grid_Score:          -32.700905
##########                     Grid_vdw_energy:          -31.284800
##########                      Grid_es_energy:           -1.416107
##########           Internal_energy_repulsive:           40.012642

@<TRIPOS>MOLECULE
ZINC000867639366
 49 51 1 0 0
SMALL
USER_CHARGES


@<TRIPOS>ATOM
      1 C1         -9.2548   -0.4466   52.1348 C.3     1  ZINC000867639366    0.0300
      2 O2         -9.0516    0.9623   52.0095 O.3     1  ZINC000867639366   -0.3800
      3 C3         -8.3067    1.5398   53.0836 C.3     1  ZINC000867639366    0.0800
      4 H4         -8.6272    1.0983   54.0272 H       1  ZINC000867639366    0.0800
      5 C5         -8.5483    3.0506   53.1184 C.3     1  ZINC000867639366   -0.1400
      6 C6         -8.1299    3.6668   51.7815 C.3     1  ZINC000867639366   -0.1200
      7 C7         -6.6346    3.4214   51.5564 C.3     1  ZINC000867639366    0.1500
      8 H8         -6.0588    3.9568   52.3111 H       1  ZINC000867639366    0.0800
      9 C9         -6.2379    3.9144   50.1633 C.3     1  ZINC000867639366   -0.1900
     10 N10        -6.3702    1.9802   51.6657 N.am    1  ZINC000867639366   -0.9800
     11 S11        -5.5871    1.1716   50.4511 S.o2    1  ZINC000867639366    2.6900
     12 O12        -5.3586   -0.1470   50.9293 O.2     1  ZINC000867639366   -0.9500
     13 O13        -6.3027    1.4518   49.2560 O.2     1  ZINC000867639366   -0.9400
     14 C14        -4.0007    1.9160   50.2673 C.ar    1  ZINC000867639366   -0.6300
     15 C15        -3.4302    2.0264   49.0129 C.ar    1  ZINC000867639366   -0.0500
     16 C16        -2.1856    2.6104   48.8686 C.ar    1  ZINC000867639366   -0.0400
     17 C17        -1.5117    3.0845   49.9785 C.ar    1  ZINC000867639366   -0.6300
     18 S18         0.0750    3.8284   49.7947 S.o2    1  ZINC000867639366    2.7000
     19 O19         0.4774    3.5891   48.4532 O.2     1  ZINC000867639366   -0.9400
     20 O20        -0.0249    5.1301   50.3558 O.2     1  ZINC000867639366   -0.9500
     21 N21         1.1265    2.9842   50.7560 N.am    1  ZINC000867639366   -1.0800
     22 C22         1.3391    1.5528   50.5282 C.3     1  ZINC000867639366    0.0800
     23 C23         2.2952    1.1508   49.4035 C.3     1  ZINC000867639366   -0.1800
     24 C24         2.7180    0.9811   50.8641 C.3     1  ZINC000867639366   -0.1900
     25 C25        -2.0827    2.9753   51.2327 C.ar    1  ZINC000867639366   -0.0400
     26 C26        -3.3290    2.3948   51.3765 C.ar    1  ZINC000867639366   -0.0400
     27 C27        -6.8135    1.2696   52.8737 C.3     1  ZINC000867639366    0.1200
     28 H28        -8.2894   -0.9517   52.1648 H       1  ZINC000867639366    0.0400
     29 H29        -9.8024   -0.6545   53.0541 H       1  ZINC000867639366    0.0400
     30 H30        -9.8278   -0.8084   51.2809 H       1  ZINC000867639366    0.0900
     31 H31        -9.6066    3.2452   53.2925 H       1  ZINC000867639366    0.0700
     32 H32        -7.9607    3.4939   53.9223 H       1  ZINC000867639366    0.0700
     33 H33        -8.6997    3.2062   50.9744 H       1  ZINC000867639366    0.0800
     34 H34        -8.3240    4.7392   51.7985 H       1  ZINC000867639366    0.0800
     35 H35        -6.3134    5.0012   50.1274 H       1  ZINC000867639366    0.0700
     36 H36        -5.2120    3.6142   49.9502 H       1  ZINC000867639366    0.0600
     37 H37        -6.9057    3.4790   49.4200 H       1  ZINC000867639366    0.1000
     38 H38        -3.9567    1.6560   48.1457 H       1  ZINC000867639366    0.1600
     39 H39        -1.7396    2.6960   47.8887 H       1  ZINC000867639366    0.1500
     40 H40         1.6016    3.4375   51.4700 H       1  ZINC000867639366    0.4200
     41 H41         0.4731    0.9148   50.7052 H       1  ZINC000867639366    0.1400
     42 H42         2.0583    0.2483   48.8400 H       1  ZINC000867639366    0.1100
     43 H43         2.7660    1.9515   48.8330 H       1  ZINC000867639366    0.1000
     44 H44         3.4670    1.6702   51.2545 H       1  ZINC000867639366    0.1000
     45 H45         2.7592   -0.0329   51.2615 H       1  ZINC000867639366    0.1000
     46 H46        -1.5564    3.3460   52.0998 H       1  ZINC000867639366    0.1500
     47 H47        -3.7752    2.3095   52.3564 H       1  ZINC000867639366    0.1500
     48 H48        -6.2522    1.6296   53.7360 H       1  ZINC000867639366    0.0900
     49 H49        -6.6493    0.1994   52.7490 H       1  ZINC000867639366    0.1000
@<TRIPOS>BOND
     1     1     2    1
     2     1    28    1
     3     1    29    1
     4     1    30    1
     5     2     3    1
     6     3     4    1
     7     3    27    1
     8     3     5    1
     9     5     6    1
    10     5    31    1
    11     5    32    1
    12     6     7    1
    13     6    33    1
    14     6    34    1
    15     7     8    1
    16     7     9    1
    17     7    10    1
    18     9    35    1
    19     9    36    1
    20     9    37    1
    21    10    11   am
    22    10    27    1
    23    11    12    2
    24    11    13    2
    25    11    14    1
    26    14    26   ar
    27    14    15   ar
    28    15    16   ar
    29    15    38    1
    30    16    17   ar
    31    16    39    1
    32    17    18    1
    33    17    25   ar
    34    18    19    2
    35    18    20    2
    36    18    21   am
    37    21    22    1
    38    21    40    1
    39    22    24    1
    40    22    23    1
    41    22    41    1
    42    23    24    1
    43    23    42    1
    44    23    43    1
    45    24    44    1
    46    24    45    1
    47    25    26   ar
    48    25    46    1
    49    26    47    1
    50    27    48    1
    51    27    49    1
@<TRIPOS>SUBSTRUCTURE
     1 ZINC000867639366        1 TEMP              0 ****  ****    0 ROOT


##########                                Name:    ZINC000787750060
##########                DOCK_Rotatable_Bonds:                   6
##########                         Heavy_Atoms:                  24
##########                    Molecular_Weight:             347.438
##########                DOCK_Rotatable_Bonds:                   6
##########                       Formal_Charge:           0.0200003
##########                     HBond_Acceptors:                   7
##########                        HBond_Donors:                   2
##########                         Heavy_Atoms:                  24
##########                          Grid_Score:          -32.699169
##########                     Grid_vdw_energy:          -32.164631
##########                      Grid_es_energy:           -0.534540
##########           Internal_energy_repulsive:            8.225696

@<TRIPOS>MOLECULE
ZINC000787750060
 45 47 1 0 0
SMALL
USER_CHARGES


@<TRIPOS>ATOM
      1 C1          0.9960    3.2079   48.5377 C.3     1  ZINC000787750060   -0.1200
      2 C2         -0.4601    2.8800   48.7464 C.ar    1  ZINC000787750060   -0.0400
      3 C3         -1.2225    2.4251   47.6833 C.ar    1  ZINC000787750060   -0.1300
      4 C4         -2.5551    2.1223   47.8626 C.ar    1  ZINC000787750060   -0.0700
      5 C5         -3.1404    2.2740   49.1216 C.ar    1  ZINC000787750060   -0.1700
      6 C6         -4.5663    1.9512   49.3207 C.2     1  ZINC000787750060    0.5600
      7 O7         -5.4102    2.8157   49.1842 O.2     1  ZINC000787750060   -0.5200
      8 N8         -4.9332    0.6978   49.6540 N.am    1  ZINC000787750060   -0.7300
      9 C9         -6.3488    0.3777   49.8535 C.3     1  ZINC000787750060    0.2100
     10 C10        -6.6971    0.5280   51.3120 C.2     1  ZINC000787750060   -0.2800
     11 C11        -7.6687   -0.1196   51.9556 C.2     1  ZINC000787750060    0.0900
     12 N12        -7.7771    0.1847   53.2367 N.2     1  ZINC000787750060   -0.5200
     13 C13        -6.9416    1.0596   53.7040 C.2     1  ZINC000787750060    0.2300
     14 N14        -6.9050    1.4998   55.0178 N.3     1  ZINC000787750060   -0.4500
     15 C15        -8.2398    1.4397   55.6310 C.3     1  ZINC000787750060    0.0200
     16 C16        -8.1430    1.8766   57.0950 C.3     1  ZINC000787750060    0.0600
     17 O17        -7.5760    3.1880   57.1596 O.3     1  ZINC000787750060   -0.3800
     18 C18        -6.2756    3.2825   56.5721 C.3     1  ZINC000787750060    0.0600
     19 C19        -6.3535    2.8599   55.1026 C.3     1  ZINC000787750060    0.0300
     20 S20        -5.8864    1.5844   52.4654 S.3     1  ZINC000787750060    0.1700
     21 C21        -2.3653    2.7343   50.1951 C.ar    1  ZINC000787750060    0.1700
     22 O22        -2.9228    2.8856   51.4225 O.3     1  ZINC000787750060   -0.4700
     23 C23        -1.0250    3.0296   49.9977 C.ar    1  ZINC000787750060   -0.1200
     24 C24        -0.1862    3.5248   51.1476 C.3     1  ZINC000787750060   -0.1200
     25 H25         1.5982    2.3172   48.7168 H       1  ZINC000787750060    0.0800
     26 H26         1.1484    3.5498   47.5140 H       1  ZINC000787750060    0.0700
     27 H27         1.2944    3.9938   49.2316 H       1  ZINC000787750060    0.0800
     28 H28        -0.7709    2.3075   46.7093 H       1  ZINC000787750060    0.1300
     29 H29        -3.1459    1.7685   47.0306 H       1  ZINC000787750060    0.1300
     30 H30        -4.2600    0.0079   49.7619 H       1  ZINC000787750060    0.4000
     31 H31        -6.9619    1.0574   49.2617 H       1  ZINC000787750060    0.0900
     32 H32        -6.5371   -0.6487   49.5390 H       1  ZINC000787750060    0.0800
     33 H33        -8.3149   -0.8352   51.4690 H       1  ZINC000787750060    0.1800
     34 H34        -8.9163    2.1064   55.0962 H       1  ZINC000787750060    0.0600
     35 H35        -8.6182    0.4189   55.5801 H       1  ZINC000787750060    0.1000
     36 H36        -9.1389    1.8885   57.5380 H       1  ZINC000787750060    0.1100
     37 H37        -7.5091    1.1788   57.6421 H       1  ZINC000787750060    0.0700
     38 H38        -5.9209    4.3112   56.6365 H       1  ZINC000787750060    0.1100
     39 H39        -5.5873    2.6255   57.1037 H       1  ZINC000787750060    0.0600
     40 H40        -5.3549    2.8756   54.6660 H       1  ZINC000787750060    0.1000
     41 H41        -6.9998    3.5493   54.5593 H       1  ZINC000787750060    0.0700
     42 H42        -3.8776    2.7330   51.4423 H       1  ZINC000787750060    0.4000
     43 H43         0.2642    2.6753   51.6610 H       1  ZINC000787750060    0.0700
     44 H44         0.5993    4.1789   50.7692 H       1  ZINC000787750060    0.0700
     45 H45        -0.8156    4.0784   51.8444 H       1  ZINC000787750060    0.0800
@<TRIPOS>BOND
     1     1     2    1
     2     1    25    1
     3     1    26    1
     4     1    27    1
     5     2    23   ar
     6     2     3   ar
     7     3     4   ar
     8     3    28    1
     9     4     5   ar
    10     4    29    1
    11     5     6    1
    12     5    21   ar
    13     6     7    2
    14     6     8   am
    15     8     9    1
    16     8    30    1
    17     9    10    1
    18     9    31    1
    19     9    32    1
    20    10    20    1
    21    10    11    2
    22    11    12    1
    23    11    33    1
    24    12    13    2
    25    13    14    1
    26    13    20    1
    27    14    19    1
    28    14    15    1
    29    15    16    1
    30    15    34    1
    31    15    35    1
    32    16    17    1
    33    16    36    1
    34    16    37    1
    35    17    18    1
    36    18    19    1
    37    18    38    1
    38    18    39    1
    39    19    40    1
    40    19    41    1
    41    21    22    1
    42    21    23   ar
    43    22    42    1
    44    23    24    1
    45    24    43    1
    46    24    44    1
    47    24    45    1
@<TRIPOS>SUBSTRUCTURE
     1 ZINC000787750060        1 TEMP              0 ****  ****    0 ROOT


##########                                Name:    ZINC000642096826
##########                DOCK_Rotatable_Bonds:                  12
##########                         Heavy_Atoms:                  25
##########                    Molecular_Weight:             345.485
##########                DOCK_Rotatable_Bonds:                  12
##########                       Formal_Charge:          0.00999919
##########                     HBond_Acceptors:                   5
##########                        HBond_Donors:                   1
##########                         Heavy_Atoms:                  25
##########                          Grid_Score:          -32.683453
##########                     Grid_vdw_energy:          -32.067837
##########                      Grid_es_energy:           -0.615616
##########           Internal_energy_repulsive:           20.957891

@<TRIPOS>MOLECULE
ZINC000642096826
 56 57 1 0 0
SMALL
USER_CHARGES


@<TRIPOS>ATOM
      1 C1          3.6652   -0.6529   50.3127 C.3     1  ZINC000642096826   -0.1500
      2 C2          2.8454   -0.3479   49.0574 C.3     1  ZINC000642096826   -0.1400
      3 C3          2.2498    1.0572   49.1661 C.3     1  ZINC000642096826    0.1200
      4 N4          1.4793    1.3559   47.9565 N.am    1  ZINC000642096826   -0.6200
      5 C5          1.5695    0.4700   46.7932 C.3     1  ZINC000642096826    0.1100
      6 C6          2.7088    0.9358   45.8844 C.3     1  ZINC000642096826   -0.1400
      7 C7          2.8587   -0.0386   44.7143 C.3     1  ZINC000642096826   -0.1500
      8 C8          0.6874    2.4456   47.9138 C.2     1  ZINC000642096826    0.5200
      9 O9          0.0483    2.6919   46.9129 O.2     1  ZINC000642096826   -0.5200
     10 C10         0.5958    3.3579   49.1098 C.3     1  ZINC000642096826    0.0400
     11 N11        -0.5184    2.9315   49.9668 N.3     1  ZINC000642096826   -0.5200
     12 C12        -0.1589    3.0338   51.3875 C.3     1  ZINC000642096826    0.0100
     13 C13        -1.7332    3.7039   49.6743 C.3     1  ZINC000642096826    0.0900
     14 C14        -2.9475    2.8729   49.9996 C.ar    1  ZINC000642096826   -0.0500
     15 C15        -3.1709    1.6861   49.3244 C.ar    1  ZINC000642096826   -0.1000
     16 C16        -4.2809    0.9208   49.6170 C.ar    1  ZINC000642096826   -0.0600
     17 C17        -5.1791    1.3461   50.5971 C.ar    1  ZINC000642096826   -0.1400
     18 C18        -6.3704    0.5308   50.9163 C.2     1  ZINC000642096826    0.5600
     19 O19        -6.9307   -0.0963   50.0386 O.2     1  ZINC000642096826   -0.5300
     20 N20        -6.8352    0.4827   52.1804 N.am    1  ZINC000642096826   -0.7000
     21 C21        -8.0167   -0.3238   52.4964 C.3     1  ZINC000642096826    0.0800
     22 C22        -8.8322    0.0705   53.7295 C.3     1  ZINC000642096826   -0.1900
     23 C23        -9.3873    0.3351   52.3285 C.3     1  ZINC000642096826   -0.1900
     24 C24        -4.9476    2.5440   51.2749 C.ar    1  ZINC000642096826   -0.0900
     25 C25        -3.8310    3.2972   50.9762 C.ar    1  ZINC000642096826   -0.1200
     26 H26         4.4698    0.0764   50.4073 H       1  ZINC000642096826    0.0600
     27 H27         3.0205   -0.5984   51.1898 H       1  ZINC000642096826    0.0600
     28 H28         4.0895   -1.6539   50.2353 H       1  ZINC000642096826    0.0600
     29 H29         3.4902   -0.4024   48.1802 H       1  ZINC000642096826    0.0600
     30 H30         2.0409   -1.0772   48.9628 H       1  ZINC000642096826    0.0600
     31 H31         1.5949    1.1079   50.0359 H       1  ZINC000642096826    0.0800
     32 H32         3.0539    1.7853   49.2737 H       1  ZINC000642096826    0.0800
     33 H33         1.7645   -0.5492   47.1269 H       1  ZINC000642096826    0.0800
     34 H34         0.6299    0.4980   46.2414 H       1  ZINC000642096826    0.0800
     35 H35         2.4842    1.9313   45.5016 H       1  ZINC000642096826    0.0700
     36 H36         3.6381    0.9663   46.4532 H       1  ZINC000642096826    0.0700
     37 H37         3.6704    0.2933   44.0669 H       1  ZINC000642096826    0.0600
     38 H38         3.0833   -1.0342   45.0972 H       1  ZINC000642096826    0.0600
     39 H39         1.9295   -0.0691   44.1455 H       1  ZINC000642096826    0.0600
     40 H40         1.5269    3.3114   49.6745 H       1  ZINC000642096826    0.0600
     41 H41         0.4251    4.3808   48.7742 H       1  ZINC000642096826    0.1000
     42 H42         0.0893    4.0680   51.6258 H       1  ZINC000642096826    0.0200
     43 H43        -1.0014    2.7120   51.9996 H       1  ZINC000642096826    0.0700
     44 H44         0.7021    2.3971   51.5912 H       1  ZINC000642096826    0.0900
     45 H45        -1.7412    4.6110   50.2785 H       1  ZINC000642096826    0.0500
     46 H46        -1.7482    3.9710   48.6176 H       1  ZINC000642096826    0.0900
     47 H47        -2.4752    1.3583   48.5662 H       1  ZINC000642096826    0.1300
     48 H48        -4.4546   -0.0049   49.0887 H       1  ZINC000642096826    0.1400
     49 H49        -6.3874    0.9821   52.8811 H       1  ZINC000642096826    0.4000
     50 H50        -7.9370   -1.3857   52.2638 H       1  ZINC000642096826    0.1400
     51 H51        -9.2889   -0.7320   54.3086 H       1  ZINC000642096826    0.1000
     52 H52        -8.4896    0.9300   54.3057 H       1  ZINC000642096826    0.1000
     53 H53        -9.4100    1.3688   51.9831 H       1  ZINC000642096826    0.1000
     54 H54       -10.2094   -0.2933   51.9859 H       1  ZINC000642096826    0.1100
     55 H55        -5.6389    2.8787   52.0341 H       1  ZINC000642096826    0.1200
     56 H56        -3.6504    4.2242   51.5002 H       1  ZINC000642096826    0.1300
@<TRIPOS>BOND
     1     1     2    1
     2     1    26    1
     3     1    27    1
     4     1    28    1
     5     2     3    1
     6     2    29    1
     7     2    30    1
     8     3     4    1
     9     3    31    1
    10     3    32    1
    11     4     5    1
    12     4     8   am
    13     5     6    1
    14     5    33    1
    15     5    34    1
    16     6     7    1
    17     6    35    1
    18     6    36    1
    19     7    37    1
    20     7    38    1
    21     7    39    1
    22     8     9    2
    23     8    10    1
    24    10    11    1
    25    10    40    1
    26    10    41    1
    27    11    12    1
    28    11    13    1
    29    12    42    1
    30    12    43    1
    31    12    44    1
    32    13    14    1
    33    13    45    1
    34    13    46    1
    35    14    25   ar
    36    14    15   ar
    37    15    16   ar
    38    15    47    1
    39    16    17   ar
    40    16    48    1
    41    17    18    1
    42    17    24   ar
    43    18    19    2
    44    18    20   am
    45    20    21    1
    46    20    49    1
    47    21    23    1
    48    21    22    1
    49    21    50    1
    50    22    23    1
    51    22    51    1
    52    22    52    1
    53    23    53    1
    54    23    54    1
    55    24    25   ar
    56    24    55    1
    57    25    56    1
@<TRIPOS>SUBSTRUCTURE
     1 ZINC000642096826        1 TEMP              0 ****  ****    0 ROOT


##########                                Name:    ZINC001000186632
##########                DOCK_Rotatable_Bonds:                   7
##########                         Heavy_Atoms:                  23
##########                    Molecular_Weight:             342.379
##########                DOCK_Rotatable_Bonds:                   7
##########                       Formal_Charge:          -0.0100001
##########                     HBond_Acceptors:                  11
##########                        HBond_Donors:                   2
##########                         Heavy_Atoms:                  23
##########                          Grid_Score:          -32.682716
##########                     Grid_vdw_energy:          -29.899513
##########                      Grid_es_energy:           -2.783203
##########           Internal_energy_repulsive:            4.576246

@<TRIPOS>MOLECULE
ZINC001000186632
 41 43 1 0 0
SMALL
USER_CHARGES


@<TRIPOS>ATOM
      1 O1        -10.2812   -0.6648   56.7143 O.2     1  ZINC001000186632   -0.5200
      2 C2        -10.1638   -1.6078   57.4679 C.2     1  ZINC001000186632    0.5300
      3 C3        -10.9319   -2.8785   57.2101 C.3     1  ZINC001000186632   -0.0500
      4 C4        -12.2413   -2.8338   57.9550 C.2     1  ZINC001000186632    0.2400
      5 N5        -13.3065   -3.5321   57.6611 N.2     1  ZINC001000186632   -0.3000
      6 N6        -14.2900   -3.1875   58.6025 N.pl3   1  ZINC001000186632   -0.4800
      7 C7        -13.7297   -2.2795   59.4201 C.2     1  ZINC001000186632    0.2700
      8 N8        -12.4990   -2.0806   59.0233 N.2     1  ZINC001000186632   -0.5400
      9 N9         -9.3420   -1.5215   58.5327 N.am    1  ZINC001000186632   -0.7100
     10 C10        -8.5953   -0.2862   58.7832 C.3     1  ZINC001000186632    0.1100
     11 C11        -9.4177    0.8008   59.4990 C.3     1  ZINC001000186632    0.1000
     12 N12        -8.9129    0.2136   60.7554 N.am    1  ZINC001000186632   -0.6500
     13 C13        -9.3533    0.1861   62.0289 C.2     1  ZINC001000186632    0.5100
     14 O14       -10.3914    0.7398   62.3237 O.2     1  ZINC001000186632   -0.5100
     15 C15        -8.5558   -0.5325   63.0866 C.3     1  ZINC001000186632    0.1500
     16 N16        -8.2619    0.3891   64.1869 N.am    1  ZINC001000186632   -0.9800
     17 C17        -7.6560    1.7237   64.0665 C.3     1  ZINC001000186632    0.0800
     18 C18        -8.1450    2.6325   65.2105 C.3     1  ZINC001000186632   -0.1300
     19 C19        -8.0338    1.7429   66.4823 C.3     1  ZINC001000186632   -0.6000
     20 S20        -8.5598    0.1203   65.8080 S.o2    1  ZINC001000186632    2.5700
     21 O21        -9.9671   -0.0479   65.9098 O.2     1  ZINC001000186632   -0.9400
     22 O22        -7.6541   -0.9097   66.1793 O.2     1  ZINC001000186632   -0.9600
     23 C23        -7.7324   -0.3312   60.0573 C.3     1  ZINC001000186632    0.0900
     24 H24       -11.1249   -2.9761   56.1417 H       1  ZINC001000186632    0.1300
     25 H25       -10.3477   -3.7323   57.5532 H       1  ZINC001000186632    0.1200
     26 H26       -15.1941   -3.5353   58.6525 H       1  ZINC001000186632    0.4400
     27 H27       -14.2105   -1.8004   60.2603 H       1  ZINC001000186632    0.2200
     28 H28        -9.2452   -2.2771   59.1331 H       1  ZINC001000186632    0.4100
     29 H29        -8.0610    0.0733   57.9038 H       1  ZINC001000186632    0.1200
     30 H30        -9.0618    1.8143   59.3136 H       1  ZINC001000186632    0.1000
     31 H31       -10.4944    0.6958   59.3665 H       1  ZINC001000186632    0.0900
     32 H32        -9.1316   -1.3774   63.4643 H       1  ZINC001000186632    0.1100
     33 H33        -7.6220   -0.8929   62.6553 H       1  ZINC001000186632    0.1100
     34 H34        -6.5709    1.6337   64.1155 H       1  ZINC001000186632    0.0800
     35 H35        -7.9381    2.1635   63.1100 H       1  ZINC001000186632    0.0900
     36 H36        -7.5039    3.5092   65.3013 H       1  ZINC001000186632    0.1100
     37 H37        -9.1799    2.9315   65.0439 H       1  ZINC001000186632    0.1000
     38 H38        -7.0079    1.7067   66.8488 H       1  ZINC001000186632    0.1400
     39 H39        -8.7163    2.0827   67.2612 H       1  ZINC001000186632    0.1400
     40 H40        -7.4637   -1.3401   60.3704 H       1  ZINC001000186632    0.0900
     41 H41        -6.8815    0.3497   60.0359 H       1  ZINC001000186632    0.1100
@<TRIPOS>BOND
     1     1     2    2
     2     2     3    1
     3     2     9   am
     4     3     4    1
     5     3    24    1
     6     3    25    1
     7     4     8    1
     8     4     5    2
     9     5     6    1
    10     6     7    1
    11     6    26    1
    12     7     8    2
    13     7    27    1
    14     9    10    1
    15     9    28    1
    16    10    23    1
    17    10    11    1
    18    10    29    1
    19    11    12    1
    20    11    30    1
    21    11    31    1
    22    12    13   am
    23    12    23    1
    24    13    14    2
    25    13    15    1
    26    15    16    1
    27    15    32    1
    28    15    33    1
    29    16    20   am
    30    16    17    1
    31    17    18    1
    32    17    34    1
    33    17    35    1
    34    18    19    1
    35    18    36    1
    36    18    37    1
    37    19    20    1
    38    19    38    1
    39    19    39    1
    40    20    21    2
    41    20    22    2
    42    23    40    1
    43    23    41    1
@<TRIPOS>SUBSTRUCTURE
     1 ZINC001000186632        1 TEMP              0 ****  ****    0 ROOT


##########                                Name:    ZINC000004313955
##########                DOCK_Rotatable_Bonds:                   6
##########                         Heavy_Atoms:                  26
##########                    Molecular_Weight:             414.358
##########                DOCK_Rotatable_Bonds:                   6
##########                       Formal_Charge:           0.0299997
##########                     HBond_Acceptors:                   9
##########                        HBond_Donors:                   2
##########                         Heavy_Atoms:                  26
##########                          Grid_Score:          -32.672726
##########                     Grid_vdw_energy:          -31.955597
##########                      Grid_es_energy:           -0.717127
##########           Internal_energy_repulsive:            9.147912

@<TRIPOS>MOLECULE
ZINC000004313955
 47 49 1 0 0
SMALL
USER_CHARGES


@<TRIPOS>ATOM
      1 C1        -14.7842   -2.8514   59.8582 C.3     1  ZINC000004313955   -0.1500
      2 C2        -14.2871   -2.3162   58.5138 C.3     1  ZINC000004313955   -0.1100
      3 H3        -14.4582   -1.2409   58.4646 H       1  ZINC000004313955    0.0800
      4 C4        -15.0450   -3.0066   57.3775 C.3     1  ZINC000004313955   -0.1100
      5 C5        -14.5718   -2.4484   56.0334 C.3     1  ZINC000004313955   -0.1100
      6 H6        -15.1286   -2.9237   55.2258 H       1  ZINC000004313955    0.0900
      7 C7        -14.8084   -0.9372   55.9964 C.3     1  ZINC000004313955   -0.1500
      8 C8        -13.0771   -2.7370   55.8629 C.3     1  ZINC000004313955    0.1200
      9 N9        -12.3564   -2.2016   57.0260 N.am    1  ZINC000004313955   -0.6000
     10 C10       -11.3185   -1.3576   56.8619 C.2     1  ZINC000004313955    0.5400
     11 O11       -10.7328   -0.9214   57.8302 O.2     1  ZINC000004313955   -0.5300
     12 C12       -10.8860   -0.9559   55.4754 C.3     1  ZINC000004313955   -0.1400
     13 S13        -9.6114    0.3244   55.5882 S.3     1  ZINC000004313955    0.0800
     14 C14        -8.9941    0.2877   53.9383 C.2     1  ZINC000004313955    0.1100
     15 N15        -9.5353   -0.3381   52.9172 N.2     1  ZINC000004313955   -0.2800
     16 N16        -8.8258   -0.1557   51.8613 N.2     1  ZINC000004313955   -0.2400
     17 C17        -7.7883    0.5977   52.1431 C.2     1  ZINC000004313955    0.2500
     18 C18        -6.7370    1.0336   51.1998 C.ar    1  ZINC000004313955   -0.0100
     19 C19        -5.6537    0.1983   50.9233 C.ar    1  ZINC000004313955   -0.0700
     20 C20        -4.6756    0.6105   50.0422 C.ar    1  ZINC000004313955   -0.1100
     21 C21        -4.7661    1.8503   49.4324 C.ar    1  ZINC000004313955   -0.0100
     22 Cl22       -3.5304    2.3613   48.3253 Cl      1  ZINC000004313955   -0.0500
     23 C23        -5.8383    2.6842   49.7016 C.ar    1  ZINC000004313955   -0.1100
     24 C24        -6.8266    2.2809   50.5770 C.ar    1  ZINC000004313955    0.0100
     25 Cl25       -8.1703    3.3271   50.9139 Cl      1  ZINC000004313955   -0.0100
     26 N26        -7.8671    0.9093   53.4809 N.pl3   1  ZINC000004313955   -0.3000
     27 N27        -6.9956    1.6743   54.2028 N.3     1  ZINC000004313955   -0.5800
     28 C28       -12.7889   -2.6026   58.3718 C.3     1  ZINC000004313955    0.1100
     29 H29       -14.2433   -2.3604   60.6672 H       1  ZINC000004313955    0.0600
     30 H30       -15.8504   -2.6485   59.9583 H       1  ZINC000004313955    0.0600
     31 H31       -14.6128   -3.9268   59.9070 H       1  ZINC000004313955    0.0600
     32 H32       -14.8542   -4.0792   57.4127 H       1  ZINC000004313955    0.0700
     33 H33       -16.1137   -2.8243   57.4905 H       1  ZINC000004313955    0.0700
     34 H34       -14.2506   -0.4622   56.8034 H       1  ZINC000004313955    0.0600
     35 H35       -14.4713   -0.5401   55.0389 H       1  ZINC000004313955    0.0600
     36 H36       -15.8719   -0.7327   56.1203 H       1  ZINC000004313955    0.0600
     37 H37       -12.9178   -3.8133   55.7980 H       1  ZINC000004313955    0.0700
     38 H38       -12.7134   -2.2563   54.9547 H       1  ZINC000004313955    0.1000
     39 H39       -10.4833   -1.8246   54.9545 H       1  ZINC000004313955    0.1300
     40 H40       -11.7433   -0.5677   54.9255 H       1  ZINC000004313955    0.1300
     41 H41        -5.5812   -0.7688   51.3985 H       1  ZINC000004313955    0.1600
     42 H42        -3.8369   -0.0354   49.8277 H       1  ZINC000004313955    0.1500
     43 H43        -5.9035    3.6500   49.2230 H       1  ZINC000004313955    0.1500
     44 H44        -7.1509    1.5619   55.1935 H       1  ZINC000004313955    0.3700
     45 H45        -6.0399    1.4603   53.9601 H       1  ZINC000004313955    0.3800
     46 H46       -12.2349   -2.0336   59.1183 H       1  ZINC000004313955    0.0900
     47 H47       -12.6064   -3.6680   58.5119 H       1  ZINC000004313955    0.0800
@<TRIPOS>BOND
     1     1     2    1
     2     1    29    1
     3     1    30    1
     4     1    31    1
     5     2     3    1
     6     2    28    1
     7     2     4    1
     8     4     5    1
     9     4    32    1
    10     4    33    1
    11     5     6    1
    12     5     7    1
    13     5     8    1
    14     7    34    1
    15     7    35    1
    16     7    36    1
    17     8     9    1
    18     8    37    1
    19     8    38    1
    20     9    10   am
    21     9    28    1
    22    10    11    2
    23    10    12    1
    24    12    13    1
    25    12    39    1
    26    12    40    1
    27    13    14    1
    28    14    26    1
    29    14    15    2
    30    15    16    1
    31    16    17    2
    32    17    18    1
    33    17    26    1
    34    18    24   ar
    35    18    19   ar
    36    19    20   ar
    37    19    41    1
    38    20    21   ar
    39    20    42    1
    40    21    22    1
    41    21    23   ar
    42    23    24   ar
    43    23    43    1
    44    24    25    1
    45    26    27    1
    46    27    44    1
    47    27    45    1
    48    28    46    1
    49    28    47    1
@<TRIPOS>SUBSTRUCTURE
     1 ZINC000004313955        1 TEMP              0 ****  ****    0 ROOT


##########                                Name:    ZINC001053433946
##########                DOCK_Rotatable_Bonds:                   6
##########                         Heavy_Atoms:                  24
##########                    Molecular_Weight:             337.419
##########                DOCK_Rotatable_Bonds:                   6
##########                       Formal_Charge:               -0.02
##########                     HBond_Acceptors:                   7
##########                        HBond_Donors:                   2
##########                         Heavy_Atoms:                  24
##########                          Grid_Score:          -32.670799
##########                     Grid_vdw_energy:          -30.847485
##########                      Grid_es_energy:           -1.823316
##########           Internal_energy_repulsive:           19.236389

@<TRIPOS>MOLECULE
ZINC001053433946
 51 54 1 0 0
SMALL
USER_CHARGES


@<TRIPOS>ATOM
      1 N1         -6.6202    1.9983   54.6718 N.am    1  ZINC001053433946   -0.8300
      2 C2         -7.8548    2.1408   54.1504 C.2     1  ZINC001053433946    0.5600
      3 O3         -8.4246    3.2089   54.2240 O.2     1  ZINC001053433946   -0.5500
      4 C4         -8.5273    0.9729   53.4760 C.3     1  ZINC001053433946   -0.1600
      5 H5         -9.4823    0.6688   53.9044 H       1  ZINC001053433946    0.1400
      6 C6         -7.6289   -0.1246   52.9020 C.3     1  ZINC001053433946   -0.1300
      7 C7         -8.3577    0.8383   51.9613 C.3     1  ZINC001053433946   -0.1700
      8 H8         -9.2008    0.4454   51.3933 H       1  ZINC001053433946    0.1400
      9 C9         -7.5305    1.8831   51.2577 C.2     1  ZINC001053433946    0.5400
     10 O10        -7.6559    3.0536   51.5493 O.2     1  ZINC001053433946   -0.5200
     11 N11        -6.6511    1.5167   50.3042 N.am    1  ZINC001053433946   -0.6100
     12 C12        -6.4800    0.1036   49.9321 C.3     1  ZINC001053433946    0.0700
     13 C13        -4.9904   -0.2476   50.0059 C.3     1  ZINC001053433946    0.0500
     14 O14        -4.2456    0.6752   49.2049 O.3     1  ZINC001053433946   -0.3400
     15 C15        -4.3804    2.0344   49.6110 C.3     1  ZINC001053433946    0.0800
     16 C16        -3.6317    2.3695   50.9079 C.3     1  ZINC001053433946   -0.0100
     17 N17        -2.4909    2.7291   50.0355 N.3     1  ZINC001053433946   -0.4700
     18 C18        -1.8505    3.9702   50.4911 C.3     1  ZINC001053433946    0.0200
     19 C19        -0.3375    3.8678   50.2877 C.3     1  ZINC001053433946   -0.1200
     20 H20         0.0974    4.8672   50.2801 H       1  ZINC001053433946    0.0800
     21 C21         0.2780    3.0504   51.4276 C.3     1  ZINC001053433946   -0.1200
     22 C22         1.7797    2.8888   51.1721 C.3     1  ZINC001053433946   -0.1600
     23 C23         1.9891    2.2302   49.8061 C.3     1  ZINC001053433946    0.0600
     24 O24         1.3660    3.0251   48.7951 O.3     1  ZINC001053433946   -0.3800
     25 C25        -0.0463    3.1728   48.9551 C.3     1  ZINC001053433946    0.0700
     26 C26        -3.4102    2.9906   48.9047 C.3     1  ZINC001053433946    0.0200
     27 C27        -5.8350    2.5193   49.5973 C.3     1  ZINC001053433946    0.1000
     28 H28        -6.1879    2.7498   55.1069 H       1  ZINC001053433946    0.4000
     29 H29        -6.1656    1.1433   54.6155 H       1  ZINC001053433946    0.4000
     30 H30        -6.5515   -0.0019   53.0123 H       1  ZINC001053433946    0.1100
     31 H31        -7.9931   -1.1507   52.9526 H       1  ZINC001053433946    0.1200
     32 H32        -7.0389   -0.5268   50.6238 H       1  ZINC001053433946    0.1000
     33 H33        -6.8429   -0.0534   48.9163 H       1  ZINC001053433946    0.0800
     34 H34        -4.6530   -0.1861   51.0405 H       1  ZINC001053433946    0.0600
     35 H35        -4.8365   -1.2601   49.6324 H       1  ZINC001053433946    0.1100
     36 H36        -4.0522    3.2149   51.4524 H       1  ZINC001053433946    0.0800
     37 H37        -3.4434    1.5037   51.5430 H       1  ZINC001053433946    0.0900
     38 H38        -2.2382    4.8114   49.9164 H       1  ZINC001053433946    0.0500
     39 H39        -2.0655    4.1228   51.5487 H       1  ZINC001053433946    0.0800
     40 H40         0.1229    3.5693   52.3735 H       1  ZINC001053433946    0.0700
     41 H41        -0.1928    2.0682   51.4675 H       1  ZINC001053433946    0.0700
     42 H42         2.2583    3.8681   51.1817 H       1  ZINC001053433946    0.0700
     43 H43         2.2160    2.2616   51.9496 H       1  ZINC001053433946    0.0700
     44 H44         3.0566    2.1516   49.6003 H       1  ZINC001053433946    0.0900
     45 H45         1.5453    1.2346   49.8106 H       1  ZINC001053433946    0.0500
     46 H46        -0.5177    2.1900   48.9487 H       1  ZINC001053433946    0.0500
     47 H47        -0.4442    3.7723   48.1363 H       1  ZINC001053433946    0.1000
     48 H48        -3.0458    2.6190   47.9470 H       1  ZINC001053433946    0.1000
     49 H49        -3.7652    4.0201   48.8559 H       1  ZINC001053433946    0.0900
     50 H50        -6.1788    2.6237   48.5682 H       1  ZINC001053433946    0.0800
     51 H51        -5.9083    3.4785   50.1098 H       1  ZINC001053433946    0.1000
@<TRIPOS>BOND
     1     1     2   am
     2     1    28    1
     3     1    29    1
     4     2     3    2
     5     2     4    1
     6     4     5    1
     7     4     7    1
     8     4     6    1
     9     6     7    1
    10     6    30    1
    11     6    31    1
    12     7     8    1
    13     7     9    1
    14     9    10    2
    15     9    11   am
    16    11    27    1
    17    11    12    1
    18    12    13    1
    19    12    32    1
    20    12    33    1
    21    13    14    1
    22    13    34    1
    23    13    35    1
    24    14    15    1
    25    15    26    1
    26    15    16    1
    27    15    27    1
    28    16    17    1
    29    16    36    1
    30    16    37    1
    31    17    18    1
    32    17    26    1
    33    18    19    1
    34    18    38    1
    35    18    39    1
    36    19    20    1
    37    19    25    1
    38    19    21    1
    39    21    22    1
    40    21    40    1
    41    21    41    1
    42    22    23    1
    43    22    42    1
    44    22    43    1
    45    23    24    1
    46    23    44    1
    47    23    45    1
    48    24    25    1
    49    25    46    1
    50    25    47    1
    51    26    48    1
    52    26    49    1
    53    27    50    1
    54    27    51    1
@<TRIPOS>SUBSTRUCTURE
     1 ZINC001053433946        1 TEMP              0 ****  ****    0 ROOT


##########                                Name:    ZINC000011972961
##########                DOCK_Rotatable_Bonds:                   6
##########                         Heavy_Atoms:                  28
##########                    Molecular_Weight:             397.501
##########                DOCK_Rotatable_Bonds:                   6
##########                       Formal_Charge:                   0
##########                     HBond_Acceptors:                   8
##########                        HBond_Donors:                   1
##########                         Heavy_Atoms:                  28
##########                          Grid_Score:          -32.641060
##########                     Grid_vdw_energy:          -32.641060
##########                      Grid_es_energy:            0.000000
##########           Internal_energy_repulsive:           28.631256

@<TRIPOS>MOLECULE
ZINC000011972961
 51 54 1 0 0
SMALL
USER_CHARGES


@<TRIPOS>ATOM
      1 C1         -2.1761    1.7494   47.8862 C.3              0.0000
      2 C2         -1.5433    2.7544   48.8137 C.2              0.0000
      3 C3         -0.2358    3.0403   48.7726 C.2              0.0000
      4 C4          0.7239    2.4291   47.8450 C.2              0.0000
      5 O5          0.7450    2.7724   46.6778 O.2              0.0000
      6 N6          1.5817    1.4879   48.2861 N.am             0.0000
      7 C7          2.5394    0.8779   47.3603 C.3              0.0000
      8 C8          1.5564    1.0745   49.6913 C.3              0.0000
      9 H9          0.5788    1.2753   50.1296 H                0.0000
     10 C10         1.9103   -0.4271   49.8210 C.3              0.0000
     11 C11         3.4167   -0.3755   50.1825 C.3              0.0000
     12 O12         3.5173    0.7797   51.0426 O.3              0.0000
     13 C13         2.6621    1.7962   50.4858 C.3              0.0000
     14 S14         0.1725    4.2469   49.9803 S.3              0.0000
     15 C15        -1.4963    4.3352   50.5277 C.ar             0.0000
     16 N16        -2.0740    5.0694   51.4853 N.ar             0.0000
     17 C17        -3.3612    4.9744   51.7288 C.ar             0.0000
     18 N18        -4.1474    4.1586   51.0504 N.ar             0.0000
     19 C19        -3.6708    3.3902   50.0828 C.ar             0.0000
     20 N20        -4.5069    2.5434   49.3838 N.pl3            0.0000
     21 C21        -5.9513    2.7877   49.3694 C.3              0.0000
     22 C22        -6.6100    1.9698   50.4501 C.ar             0.0000
     23 N23        -7.6453    2.4629   51.1010 N.ar             0.0000
     24 C24        -8.2534    1.7831   52.0537 C.ar             0.0000
     25 C25        -9.4327    2.3927   52.7669 C.3              0.0000
     26 C26        -7.8219    0.5183   52.4051 C.ar             0.0000
     27 C27        -6.7358   -0.0335   51.7427 C.ar             0.0000
     28 C28        -6.1254    0.7090   50.7438 C.ar             0.0000
     29 C29        -2.2832    3.4556   49.7714 C.ar             0.0000
     30 H30        -2.8321    2.2650   47.1848 H                0.0000
     31 H31        -1.3971    1.2226   47.3350 H                0.0000
     32 H32        -2.7570    1.0335   48.4678 H                0.0000
     33 H33         3.2490    1.6329   47.0220 H                0.0000
     34 H34         3.0760    0.0766   47.8684 H                0.0000
     35 H35         2.0057    0.4704   46.5017 H                0.0000
     36 H36         1.3344   -0.8949   50.6195 H                0.0000
     37 H37         1.7548   -0.9464   48.8753 H                0.0000
     38 H38         3.7144   -1.2783   50.7159 H                0.0000
     39 H39         4.0221   -0.2407   49.2862 H                0.0000
     40 H40         3.2365    2.4400   49.8198 H                0.0000
     41 H41         2.2203    2.3887   51.2871 H                0.0000
     42 H42        -3.7908    5.5833   52.5103 H                0.0000
     43 H43        -4.1382    1.7865   48.9021 H                0.0000
     44 H44        -6.1427    3.8460   49.5471 H                0.0000
     45 H45        -6.3583    2.5029   48.3991 H                0.0000
     46 H46       -10.3507    2.1293   52.2417 H                0.0000
     47 H47        -9.4762    2.0125   53.7875 H                0.0000
     48 H48        -9.3241    3.4770   52.7874 H                0.0000
     49 H49        -8.3240   -0.0334   53.1861 H                0.0000
     50 H50        -6.3765   -1.0200   51.9962 H                0.0000
     51 H51        -5.2774    0.3104   50.2068 H                0.0000
@<TRIPOS>BOND
     1     1     2    1
     2     1    30    1
     3     1    31    1
     4     1    32    1
     5     2    29    1
     6     2     3    2
     7     3     4    1
     8     3    14    1
     9     4     5    2
    10     4     6   am
    11     6     7    1
    12     6     8    1
    13     7    33    1
    14     7    34    1
    15     7    35    1
    16     8     9    1
    17     8    13    1
    18     8    10    1
    19    10    11    1
    20    10    36    1
    21    10    37    1
    22    11    12    1
    23    11    38    1
    24    11    39    1
    25    12    13    1
    26    13    40    1
    27    13    41    1
    28    14    15    1
    29    15    29   ar
    30    15    16   ar
    31    16    17   ar
    32    17    18   ar
    33    17    42    1
    34    18    19   ar
    35    19    20    1
    36    19    29   ar
    37    20    21    1
    38    20    43    1
    39    21    22    1
    40    21    44    1
    41    21    45    1
    42    22    28   ar
    43    22    23   ar
    44    23    24   ar
    45    24    25    1
    46    24    26   ar
    47    25    46    1
    48    25    47    1
    49    25    48    1
    50    26    27   ar
    51    26    49    1
    52    27    28   ar
    53    27    50    1
    54    28    51    1
@<TRIPOS>SUBSTRUCTURE
     1         1 TEMP              0 ****  ****    0 ROOT


##########                                Name:     oleObject15.pdb
##########                DOCK_Rotatable_Bonds:                   9
##########                         Heavy_Atoms:                  29
##########                    Molecular_Weight:             395.545
##########                DOCK_Rotatable_Bonds:                   9
##########                       Formal_Charge:         0.000700183
##########                     HBond_Acceptors:                   5
##########                        HBond_Donors:                   1
##########                         Heavy_Atoms:                  29
##########                          Grid_Score:          -32.630180
##########                     Grid_vdw_energy:          -32.602276
##########                      Grid_es_energy:           -0.027905
##########           Internal_energy_repulsive:           10.147686

@<TRIPOS>MOLECULE
oleObject15.pdb
 62 64 1 0 0
SMALL
NO_CHARGES


@<TRIPOS>ATOM
      1 O          -8.0723    1.0059   51.7070 O.3     1  UNL        -0.3745
      2 C          -7.2109   -0.1163   52.0039 C.3     1  UNL         0.0600
      3 C          -6.1241   -0.2069   50.9075 C.3     1  UNL         0.0217
      4 N          -5.5348    1.0946   50.5150 N.4     1  UNL        -0.3010
      5 C          -5.1422    1.9628   51.6487 C.3     1  UNL        -0.0010
      6 C          -4.6608    3.3498   51.1701 C.3     1  UNL        -0.0289
      7 C          -3.5296    3.2631   50.1173 C.3     1  UNL         0.0382
      8 C          -3.9297    2.2811   48.9874 C.3     1  UNL        -0.0289
      9 C          -4.4629    0.9270   49.5109 C.3     1  UNL        -0.0010
     10 C          -2.1715    2.8951   50.7648 C.2     1  UNL         0.2156
     11 O          -2.0722    2.6362   51.9505 O.2     1  UNL        -0.2774
     12 N          -1.0313    2.8088   49.9762 N.am    1  UNL        -0.3025
     13 C           0.3390    2.4746   50.4077 C.3     1  UNL         0.0900
     14 C           1.1405    1.7445   49.3315 C.ar    1  UNL        -0.0217
     15 C           2.1707    0.8455   49.6738 C.ar    1  UNL        -0.0568
     16 C           2.9061    0.1921   48.6714 C.ar    1  UNL        -0.0619
     17 C           2.6157    0.4293   47.3189 C.ar    1  UNL        -0.0622
     18 C           1.5872    1.3185   46.9698 C.ar    1  UNL        -0.0619
     19 C           0.8518    1.9716   47.9724 C.ar    1  UNL        -0.0568
     20 C           1.0922    3.7074   50.8986 C.ar    1  UNL         0.0652
     21 C           1.0604    4.1060   52.2510 C.ar    1  UNL        -0.0383
     22 C           1.7672    5.2552   52.6398 C.ar    1  UNL        -0.0588
     23 C           2.4803    5.9669   51.6628 C.ar    1  UNL        -0.0438
     24 C           2.4574    5.5009   50.3372 C.ar    1  UNL         0.0272
     25 N           1.7790    4.3976   49.9619 N.ar    1  UNL        -0.2590
     26 C          -9.1005    1.3875   52.6514 C.3     1  UNL         0.0599
     27 C          -8.4786    1.5450   54.0617 C.3     1  UNL        -0.0364
     28 C          -9.6197    2.7533   52.1479 C.3     1  UNL        -0.0364
     29 C         -10.2459    0.3444   52.6404 C.3     1  UNL        -0.0364
     30 H          -7.7869   -1.0494   52.0070 H       1  UNL         0.0581
     31 H          -6.7348   -0.0070   52.9843 H       1  UNL         0.0581
     32 H          -6.5803   -0.6754   50.0261 H       1  UNL         0.0455
     33 H          -5.3292   -0.8772   51.2582 H       1  UNL         0.0455
     34 H          -4.3445    1.4797   52.2275 H       1  UNL         0.0431
     35 H          -5.9928    2.1226   52.3215 H       1  UNL         0.0431
     36 H          -4.3352    3.9438   52.0318 H       1  UNL         0.0288
     37 H          -5.5149    3.8803   50.7294 H       1  UNL         0.0288
     38 H          -3.4463    4.2460   49.6461 H       1  UNL         0.0402
     39 H          -3.0781    2.1125   48.3161 H       1  UNL         0.0288
     40 H          -4.7177    2.7473   48.3818 H       1  UNL         0.0288
     41 H          -3.6357    0.3539   49.9480 H       1  UNL         0.0431
     42 H          -4.8426    0.3513   48.6570 H       1  UNL         0.0431
     43 H          -1.1829    2.8979   48.9797 H       1  UNL         0.1504
     44 H           0.2430    1.8058   51.2726 H       1  UNL         0.0624
     45 H           2.4108    0.6588   50.7164 H       1  UNL         0.0626
     46 H           3.7018   -0.4956   48.9433 H       1  UNL         0.0623
     47 H           3.1848   -0.0756   46.5435 H       1  UNL         0.0623
     48 H           1.3594    1.5012   45.9235 H       1  UNL         0.0623
     49 H           0.0569    2.6570   47.6916 H       1  UNL         0.0626
     50 H           0.4991    3.5374   52.9862 H       1  UNL         0.0643
     51 H           1.7614    5.5864   53.6743 H       1  UNL         0.0624
     52 H           3.0388    6.8606   51.9252 H       1  UNL         0.0639
     53 H           2.9980    6.0271   49.5513 H       1  UNL         0.0840
     54 H          -7.5872    2.1844   54.0256 H       1  UNL         0.0260
     55 H          -8.1888    0.5761   54.4860 H       1  UNL         0.0260
     56 H          -9.1965    2.0043   54.7529 H       1  UNL         0.0260
     57 H          -8.8091    3.4929   52.1195 H       1  UNL         0.0260
     58 H         -10.4098    3.1410   52.8033 H       1  UNL         0.0260
     59 H         -10.0325    2.6650   51.1347 H       1  UNL         0.0260
     60 H          -9.9226   -0.6127   53.0678 H       1  UNL         0.0260
     61 H         -10.5984    0.1623   51.6170 H       1  UNL         0.0260
     62 H         -11.0984    0.6987   53.2335 H       1  UNL         0.0260
@<TRIPOS>BOND
     1     1     2    1
     2     1    26    1
     3     2     3    1
     4     2    30    1
     5     2    31    1
     6     3     4    1
     7     3    32    1
     8     3    33    1
     9     4     5    1
    10     4     9    1
    11     5     6    1
    12     5    34    1
    13     5    35    1
    14     6     7    1
    15     6    36    1
    16     6    37    1
    17     7     8    1
    18     7    10    1
    19     7    38    1
    20     8     9    1
    21     8    39    1
    22     8    40    1
    23     9    41    1
    24     9    42    1
    25    10    11    2
    26    10    12   am
    27    12    13    1
    28    12    43    1
    29    13    14    1
    30    13    20    1
    31    13    44    1
    32    14    15   ar
    33    14    19   ar
    34    15    16   ar
    35    15    45    1
    36    16    17   ar
    37    16    46    1
    38    17    18   ar
    39    17    47    1
    40    18    19   ar
    41    18    48    1
    42    19    49    1
    43    20    21   ar
    44    20    25   ar
    45    21    22   ar
    46    21    50    1
    47    22    23   ar
    48    22    51    1
    49    23    24   ar
    50    23    52    1
    51    24    25   ar
    52    24    53    1
    53    26    27    1
    54    26    28    1
    55    26    29    1
    56    27    54    1
    57    27    55    1
    58    27    56    1
    59    28    57    1
    60    28    58    1
    61    28    59    1
    62    29    60    1
    63    29    61    1
    64    29    62    1
@<TRIPOS>SUBSTRUCTURE
     1 UNL         1 TEMP              0 ****  ****    0 ROOT


##########                                Name:    ZINC000572257265
##########                DOCK_Rotatable_Bonds:                  11
##########                         Heavy_Atoms:                  24
##########                    Molecular_Weight:             393.509
##########                DOCK_Rotatable_Bonds:                  11
##########                       Formal_Charge:          -0.0100002
##########                     HBond_Acceptors:                  11
##########                        HBond_Donors:                   3
##########                         Heavy_Atoms:                  24
##########                          Grid_Score:          -32.592922
##########                     Grid_vdw_energy:          -31.206949
##########                      Grid_es_energy:           -1.385975
##########           Internal_energy_repulsive:            6.798594

@<TRIPOS>MOLECULE
ZINC000572257265
 43 43 1 0 0
SMALL
USER_CHARGES


@<TRIPOS>ATOM
      1 C1         -9.7718    6.1015   47.2303 C.3     1  ZINC000572257265   -0.1300
      2 S2         -9.4239    4.8530   48.4994 S.3     1  ZINC000572257265   -0.2200
      3 C3         -7.9901    5.5441   49.3695 C.3     1  ZINC000572257265   -0.1300
      4 C4         -7.5671    4.5933   50.4910 C.3     1  ZINC000572257265    0.1500
      5 C5         -6.4803    5.2567   51.3394 C.3     1  ZINC000572257265   -0.1500
      6 O6         -8.6969    4.2942   51.3132 O.3     1  ZINC000572257265   -0.5400
      7 C7         -7.0212    3.2993   49.8839 C.3     1  ZINC000572257265    0.0900
      8 N8         -6.8333    2.3044   50.9426 N.am    1  ZINC000572257265   -1.1100
      9 S9         -5.7310    1.0843   50.7461 S.o2    1  ZINC000572257265    2.6900
     10 O10        -5.6752    0.3905   51.9850 O.2     1  ZINC000572257265   -0.9400
     11 O11        -6.0488    0.4511   49.5143 O.2     1  ZINC000572257265   -0.9500
     12 C12        -4.1533    1.8373   50.5259 C.ar    1  ZINC000572257265   -0.6300
     13 C13        -3.5171    2.4351   51.5976 C.ar    1  ZINC000572257265   -0.0400
     14 C14        -2.2794    3.0260   51.4249 C.ar    1  ZINC000572257265   -0.0400
     15 C15        -1.6777    3.0186   50.1803 C.ar    1  ZINC000572257265   -0.6300
     16 S16        -0.1003    3.7722   49.9600 S.o2    1  ZINC000572257265    2.7000
     17 O17         0.2928    3.4964   48.6226 O.2     1  ZINC000572257265   -0.9400
     18 O18        -0.2083    5.0893   50.4825 O.2     1  ZINC000572257265   -0.9400
     19 N19         0.9680    2.9678   50.9367 N.am    1  ZINC000572257265   -1.1200
     20 C20         1.1932    1.5323   50.7501 C.3     1  ZINC000572257265    0.2200
     21 C21         2.6035    1.2164   51.0296 C.1     1  ZINC000572257265    0.1900
     22 N22         3.6918    0.9726   51.2453 N.1     1  ZINC000572257265   -0.3900
     23 C23        -2.3133    2.4197   49.1088 C.ar    1  ZINC000572257265   -0.0400
     24 C24        -3.5493    1.8254   49.2825 C.ar    1  ZINC000572257265   -0.0400
     25 H25        -8.9024    6.2131   46.5824 H       1  ZINC000572257265    0.0800
     26 H26       -10.6297    5.7865   46.6362 H       1  ZINC000572257265    0.1000
     27 H27        -9.9925    7.0553   47.7096 H       1  ZINC000572257265    0.0800
     28 H28        -7.1650    5.6688   48.6683 H       1  ZINC000572257265    0.0900
     29 H29        -8.2551    6.5122   49.7946 H       1  ZINC000572257265    0.0900
     30 H30        -6.8692    6.1785   51.7720 H       1  ZINC000572257265    0.0800
     31 H31        -6.1789    4.5793   52.1384 H       1  ZINC000572257265    0.0700
     32 H32        -5.6185    5.4849   50.7122 H       1  ZINC000572257265    0.0800
     33 H33        -8.5105    3.6660   52.0244 H       1  ZINC000572257265    0.3800
     34 H34        -7.7281    2.9171   49.1474 H       1  ZINC000572257265    0.0900
     35 H35        -6.0654    3.5000   49.4000 H       1  ZINC000572257265    0.0800
     36 H36        -7.3544    2.3603   51.7589 H       1  ZINC000572257265    0.4300
     37 H37        -3.9872    2.4408   52.5700 H       1  ZINC000572257265    0.1500
     38 H38        -1.7827    3.4936   52.2621 H       1  ZINC000572257265    0.1500
     39 H39         1.4447    3.4470   51.6323 H       1  ZINC000572257265    0.4300
     40 H40         0.5533    0.9724   51.4322 H       1  ZINC000572257265    0.1100
     41 H41         0.9562    1.2579   49.7222 H       1  ZINC000572257265    0.1300
     42 H42        -1.8430    2.4135   48.1367 H       1  ZINC000572257265    0.1600
     43 H43        -4.0459    1.3574   48.4453 H       1  ZINC000572257265    0.1500
@<TRIPOS>BOND
     1     1     2    1
     2     1    25    1
     3     1    26    1
     4     1    27    1
     5     2     3    1
     6     3     4    1
     7     3    28    1
     8     3    29    1
     9     4     5    1
    10     4     6    1
    11     4     7    1
    12     5    30    1
    13     5    31    1
    14     5    32    1
    15     6    33    1
    16     7     8    1
    17     7    34    1
    18     7    35    1
    19     8     9   am
    20     8    36    1
    21     9    10    2
    22     9    11    2
    23     9    12    1
    24    12    24   ar
    25    12    13   ar
    26    13    14   ar
    27    13    37    1
    28    14    15   ar
    29    14    38    1
    30    15    16    1
    31    15    23   ar
    32    16    17    2
    33    16    18    2
    34    16    19   am
    35    19    20    1
    36    19    39    1
    37    20    21    1
    38    20    40    1
    39    20    41    1
    40    21    22    3
    41    23    24   ar
    42    23    42    1
    43    24    43    1
@<TRIPOS>SUBSTRUCTURE
     1 ZINC000572257265        1 TEMP              0 ****  ****    0 ROOT


##########                                Name:    ZINC001105793963
##########                DOCK_Rotatable_Bonds:                   9
##########                         Heavy_Atoms:                  24
##########                    Molecular_Weight:             337.422
##########                DOCK_Rotatable_Bonds:                   9
##########                       Formal_Charge:          -0.0100003
##########                     HBond_Acceptors:                   8
##########                        HBond_Donors:                   2
##########                         Heavy_Atoms:                  24
##########                          Grid_Score:          -32.589458
##########                     Grid_vdw_energy:          -32.391705
##########                      Grid_es_energy:           -0.197754
##########           Internal_energy_repulsive:            7.462462

@<TRIPOS>MOLECULE
ZINC001105793963
 51 52 1 0 0
SMALL
USER_CHARGES


@<TRIPOS>ATOM
      1 C1          1.6341    0.1983   46.3746 C.3     1  ZINC001105793963   -0.1500
      2 C2          1.5642    1.4817   47.2047 C.3     1  ZINC001105793963   -0.0300
      3 C3          0.1226    1.8237   47.4804 C.2     1  ZINC001105793963    0.1800
      4 N4         -0.3430    2.4540   48.5317 N.2     1  ZINC001105793963   -0.4800
      5 C5         -1.6730    2.5324   48.3471 C.2     1  ZINC001105793963    0.1700
      6 C6         -2.6671    3.1713   49.2823 C.3     1  ZINC001105793963    0.1500
      7 N7         -3.9842    2.5473   49.0977 N.3     1  ZINC001105793963   -0.6900
      8 C8         -5.0420    3.3576   49.7161 C.3     1  ZINC001105793963    0.0700
      9 C9         -5.6111    2.6152   50.9268 C.3     1  ZINC001105793963   -0.1000
     10 H10        -4.8051    2.2940   51.5866 H       1  ZINC001105793963    0.1000
     11 C11        -6.4454    1.3999   50.4677 C.3     1  ZINC001105793963    0.1100
     12 N12        -7.5816    1.3464   51.4169 N.am    1  ZINC001105793963   -0.6200
     13 C13        -8.1486    0.2544   51.9669 C.2     1  ZINC001105793963    0.5300
     14 O14        -7.7262   -0.8497   51.6962 O.2     1  ZINC001105793963   -0.5300
     15 C15        -9.3077    0.4055   52.9181 C.3     1  ZINC001105793963    0.1300
     16 H16        -9.1418    1.2719   53.5583 H       1  ZINC001105793963    0.1100
     17 C17       -10.5993    0.5998   52.1214 C.3     1  ZINC001105793963   -0.1600
     18 N18        -9.4206   -0.7984   53.7453 N.am    1  ZINC001105793963   -0.7200
     19 C19       -10.0311   -0.7368   54.9453 C.2     1  ZINC001105793963    0.5200
     20 C20       -10.1456   -1.9746   55.7970 C.3     1  ZINC001105793963   -0.1700
     21 O21       -10.4883    0.3151   55.3397 O.2     1  ZINC001105793963   -0.5500
     22 C22        -7.9530    2.7655   51.6245 C.3     1  ZINC001105793963    0.1000
     23 C23        -6.6029    3.5165   51.6911 C.3     1  ZINC001105793963   -0.1000
     24 H24        -6.6852    4.4878   51.2034 H       1  ZINC001105793963    0.0900
     25 C25        -6.1613    3.6885   53.1459 C.3     1  ZINC001105793963   -0.1500
     26 N26        -1.9432    1.9565   47.2141 N.2     1  ZINC001105793963   -0.3700
     27 O27        -0.9247    1.5478   46.6975 O.3     1  ZINC001105793963    0.0800
     28 H28         1.1664   -0.6172   46.9263 H       1  ZINC001105793963    0.0600
     29 H29         1.1091    0.3468   45.4311 H       1  ZINC001105793963    0.0600
     30 H30         2.6768   -0.0491   46.1752 H       1  ZINC001105793963    0.0800
     31 H31         2.0893    1.3331   48.1483 H       1  ZINC001105793963    0.1100
     32 H32         2.0320    2.2971   46.6530 H       1  ZINC001105793963    0.1000
     33 H33        -2.3395    3.0306   50.3123 H       1  ZINC001105793963    0.1000
     34 H34        -2.7366    4.2374   49.0656 H       1  ZINC001105793963    0.0700
     35 H35        -4.1753    2.3887   48.1197 H       1  ZINC001105793963    0.3500
     36 H36        -4.6269    4.3127   50.0378 H       1  ZINC001105793963    0.0800
     37 H37        -5.8366    3.5326   48.9908 H       1  ZINC001105793963    0.0400
     38 H38        -6.8068    1.5496   49.4503 H       1  ZINC001105793963    0.0700
     39 H39        -5.8537    0.4868   50.5313 H       1  ZINC001105793963    0.0900
     40 H40       -11.4377    0.7090   52.8094 H       1  ZINC001105793963    0.0800
     41 H41       -10.5153    1.4955   51.5059 H       1  ZINC001105793963    0.0800
     42 H42       -10.7652   -0.2667   51.4812 H       1  ZINC001105793963    0.0600
     43 H43        -9.0560   -1.6399   53.4293 H       1  ZINC001105793963    0.4100
     44 H44        -9.6808   -2.8149   55.2811 H       1  ZINC001105793963    0.0800
     45 H45        -9.6412   -1.8087   56.7488 H       1  ZINC001105793963    0.1000
     46 H46       -11.1976   -2.1958   55.9769 H       1  ZINC001105793963    0.1000
     47 H47        -8.5499    3.1284   50.7877 H       1  ZINC001105793963    0.0800
     48 H48        -8.4986    2.8825   52.5607 H       1  ZINC001105793963    0.0900
     49 H49        -6.0712    2.7094   53.6164 H       1  ZINC001105793963    0.0600
     50 H50        -5.1971    4.1959   53.1752 H       1  ZINC001105793963    0.0600
     51 H51        -6.9010    4.2827   53.6823 H       1  ZINC001105793963    0.0600
@<TRIPOS>BOND
     1     1     2    1
     2     1    28    1
     3     1    29    1
     4     1    30    1
     5     2     3    1
     6     2    31    1
     7     2    32    1
     8     3    27    1
     9     3     4    2
    10     4     5    1
    11     5     6    1
    12     5    26    2
    13     6     7    1
    14     6    33    1
    15     6    34    1
    16     7     8    1
    17     7    35    1
    18     8     9    1
    19     8    36    1
    20     8    37    1
    21     9    10    1
    22     9    23    1
    23     9    11    1
    24    11    12    1
    25    11    38    1
    26    11    39    1
    27    12    13   am
    28    12    22    1
    29    13    14    2
    30    13    15    1
    31    15    16    1
    32    15    17    1
    33    15    18    1
    34    17    40    1
    35    17    41    1
    36    17    42    1
    37    18    19   am
    38    18    43    1
    39    19    20    1
    40    19    21    2
    41    20    44    1
    42    20    45    1
    43    20    46    1
    44    22    23    1
    45    22    47    1
    46    22    48    1
    47    23    24    1
    48    23    25    1
    49    25    49    1
    50    25    50    1
    51    25    51    1
    52    26    27    1
@<TRIPOS>SUBSTRUCTURE
     1 ZINC001105793963        1 TEMP              0 ****  ****    0 ROOT


##########                                Name:    ZINC000151820600
##########                DOCK_Rotatable_Bonds:                  10
##########                         Heavy_Atoms:                  25
##########                    Molecular_Weight:             388.915
##########                DOCK_Rotatable_Bonds:                  10
##########                       Formal_Charge:           0.0499998
##########                     HBond_Acceptors:                   8
##########                        HBond_Donors:                   2
##########                         Heavy_Atoms:                  25
##########                          Grid_Score:          -32.583485
##########                     Grid_vdw_energy:          -31.751101
##########                      Grid_es_energy:           -0.832384
##########           Internal_energy_repulsive:           36.166420

@<TRIPOS>MOLECULE
ZINC000151820600
 50 50 1 0 0
SMALL
USER_CHARGES


@<TRIPOS>ATOM
      1 C1        -12.1926    1.4559   52.7538 C.3     1  ZINC000151820600   -0.4900
      2 S2        -10.8088    0.6000   53.5557 S.o     1  ZINC000151820600    1.2500
      3 O3        -10.2514    1.4377   54.5593 O.2     1  ZINC000151820600   -0.8500
      4 C4         -9.6154    0.3988   52.2045 C.3     1  ZINC000151820600   -0.4500
      5 C5         -8.3696   -0.3192   52.7272 C.3     1  ZINC000151820600   -0.1100
      6 C6         -7.3634   -0.4902   51.5871 C.3     1  ZINC000151820600    0.1200
      7 N7         -6.9433    0.8278   51.1050 N.am    1  ZINC000151820600   -0.7200
      8 C8         -5.7821    0.9613   50.4340 C.2     1  ZINC000151820600    0.5200
      9 O9         -5.0842   -0.0097   50.2306 O.2     1  ZINC000151820600   -0.5200
     10 C10        -5.3508    2.3167   49.9364 C.3     1  ZINC000151820600    0.1900
     11 H11        -5.5980    2.4111   48.8790 H       1  ZINC000151820600    0.1300
     12 N12        -6.0458    3.3594   50.6954 N.am    1  ZINC000151820600   -0.6900
     13 C13        -7.0545    4.0485   50.1259 C.2     1  ZINC000151820600    0.6600
     14 O14        -7.3865    3.8059   48.9825 O.2     1  ZINC000151820600   -0.5600
     15 O15        -7.6942    5.0056   50.8239 O.3     1  ZINC000151820600   -0.3600
     16 C16        -8.7310    5.7470   50.1285 C.3     1  ZINC000151820600    0.1400
     17 C17        -9.8215    4.7814   49.6601 C.3     1  ZINC000151820600   -0.1800
     18 C18        -9.3398    6.7830   51.0756 C.3     1  ZINC000151820600   -0.1400
     19 C19        -8.1246    6.4578   48.9170 C.3     1  ZINC000151820600   -0.1800
     20 C20        -3.8628    2.4691   50.1199 C.ar    1  ZINC000151820600   -0.1000
     21 C21        -3.3392    2.6674   51.3837 C.ar    1  ZINC000151820600   -0.0900
     22 C22        -1.9741    2.8067   51.5529 C.ar    1  ZINC000151820600   -0.1000
     23 C23        -1.1323    2.7485   50.4585 C.ar    1  ZINC000151820600   -0.1000
     24 C24        -1.6560    2.5501   49.1931 C.ar    1  ZINC000151820600   -0.0300
     25 Cl25       -0.5991    2.4762   47.8178 Cl      1  ZINC000151820600   -0.0600
     26 C26        -3.0213    2.4050   49.0251 C.ar    1  ZINC000151820600   -0.0900
     27 H27       -11.8476    2.4095   52.3542 H       1  ZINC000151820600    0.0800
     28 H28       -12.5791    0.8401   51.9417 H       1  ZINC000151820600    0.1100
     29 H29       -12.9828    1.6324   53.4837 H       1  ZINC000151820600    0.1100
     30 H30       -10.0663   -0.1906   51.4062 H       1  ZINC000151820600    0.1200
     31 H31        -9.3348    1.3789   51.8187 H       1  ZINC000151820600    0.0900
     32 H32        -7.9180    0.2705   53.5248 H       1  ZINC000151820600    0.0800
     33 H33        -8.6503   -1.2989   53.1139 H       1  ZINC000151820600    0.0900
     34 H34        -6.4940   -1.0388   51.9492 H       1  ZINC000151820600    0.0800
     35 H35        -7.8289   -1.0440   50.7718 H       1  ZINC000151820600    0.0700
     36 H36        -7.5008    1.6046   51.2686 H       1  ZINC000151820600    0.4000
     37 H37        -5.7800    3.5539   51.6077 H       1  ZINC000151820600    0.4200
     38 H38       -10.2536    4.2750   50.5233 H       1  ZINC000151820600    0.0600
     39 H39       -10.5999    5.3379   49.1381 H       1  ZINC000151820600    0.0700
     40 H40        -9.3879    4.0433   48.9853 H       1  ZINC000151820600    0.0900
     41 H41        -8.5630    7.4710   51.4094 H       1  ZINC000151820600    0.0700
     42 H42       -10.1181    7.3395   50.5536 H       1  ZINC000151820600    0.0800
     43 H43        -9.7719    6.2766   51.9388 H       1  ZINC000151820600    0.0700
     44 H44        -7.6909    5.7197   48.2422 H       1  ZINC000151820600    0.0900
     45 H45        -8.9029    7.0143   48.3950 H       1  ZINC000151820600    0.0700
     46 H46        -7.3477    7.1457   49.2507 H       1  ZINC000151820600    0.0600
     47 H47        -3.9967    2.7136   52.2392 H       1  ZINC000151820600    0.1300
     48 H48        -1.5655    2.9616   52.5406 H       1  ZINC000151820600    0.1400
     49 H49        -0.0661    2.8582   50.5908 H       1  ZINC000151820600    0.1400
     50 H50        -3.4306    2.2501   48.0377 H       1  ZINC000151820600    0.1400
@<TRIPOS>BOND
     1     1     2    1
     2     1    27    1
     3     1    28    1
     4     1    29    1
     5     2     3    2
     6     2     4    1
     7     4     5    1
     8     4    30    1
     9     4    31    1
    10     5     6    1
    11     5    32    1
    12     5    33    1
    13     6     7    1
    14     6    34    1
    15     6    35    1
    16     7     8   am
    17     7    36    1
    18     8     9    2
    19     8    10    1
    20    10    11    1
    21    10    12    1
    22    10    20    1
    23    12    13   am
    24    12    37    1
    25    13    14    2
    26    13    15    1
    27    15    16    1
    28    16    17    1
    29    16    18    1
    30    16    19    1
    31    17    38    1
    32    17    39    1
    33    17    40    1
    34    18    41    1
    35    18    42    1
    36    18    43    1
    37    19    44    1
    38    19    45    1
    39    19    46    1
    40    20    26   ar
    41    20    21   ar
    42    21    22   ar
    43    21    47    1
    44    22    23   ar
    45    22    48    1
    46    23    24   ar
    47    23    49    1
    48    24    25    1
    49    24    26   ar
    50    26    50    1
@<TRIPOS>SUBSTRUCTURE
     1 ZINC000151820600        1 TEMP              0 ****  ****    0 ROOT


##########                                Name:    ZINC000301324012
##########                DOCK_Rotatable_Bonds:                   7
##########                         Heavy_Atoms:                  28
##########                    Molecular_Weight:               415.9
##########                DOCK_Rotatable_Bonds:                   7
##########                       Formal_Charge:          -0.0100002
##########                     HBond_Acceptors:                   8
##########                        HBond_Donors:                   2
##########                         Heavy_Atoms:                  28
##########                          Grid_Score:          -32.582516
##########                     Grid_vdw_energy:          -31.723215
##########                      Grid_es_energy:           -0.859301
##########           Internal_energy_repulsive:            9.390396

@<TRIPOS>MOLECULE
ZINC000301324012
 46 48 1 0 0
SMALL
USER_CHARGES


@<TRIPOS>ATOM
      1 C1        -10.9100    0.6640   55.3068 C.3     1  ZINC000301324012   -0.1600
      2 C2         -9.6184   -0.1157   55.5614 C.3     1  ZINC000301324012    0.2000
      3 H3         -9.7853   -1.1727   55.3542 H       1  ZINC000301324012    0.1100
      4 N4         -8.5604    0.3926   54.6848 N.am    1  ZINC000301324012   -0.7100
      5 C5         -8.3810   -0.1462   53.4626 C.2     1  ZINC000301324012    0.5500
      6 O6         -9.0982   -1.0528   53.0868 O.2     1  ZINC000301324012   -0.5300
      7 C7         -7.3121    0.3657   52.5788 C.ar    1  ZINC000301324012   -0.0700
      8 C8         -6.4238    1.3371   53.0430 C.ar    1  ZINC000301324012   -0.1100
      9 C9         -5.4283    1.8101   52.2133 C.ar    1  ZINC000301324012   -0.0200
     10 C10        -5.3095    1.3239   50.9234 C.ar    1  ZINC000301324012   -0.6600
     11 S11        -4.0354    1.9337   49.8701 S.o2    1  ZINC000301324012    2.6900
     12 O12        -2.9529    2.2945   50.7172 O.2     1  ZINC000301324012   -0.9400
     13 O13        -3.9122    0.9991   48.8069 O.2     1  ZINC000301324012   -0.9400
     14 N14        -4.5893    3.3404   49.1944 N.am    1  ZINC000301324012   -1.0500
     15 C15        -4.9416    4.4172   50.0126 C.ar    1  ZINC000301324012    0.1600
     16 C16        -3.9559    5.1566   50.6525 C.ar    1  ZINC000301324012   -0.1600
     17 C17        -4.3075    6.2206   51.4606 C.ar    1  ZINC000301324012   -0.0800
     18 C18        -5.6391    6.5497   51.6332 C.ar    1  ZINC000301324012   -0.1200
     19 C19        -6.6243    5.8158   50.9975 C.ar    1  ZINC000301324012   -0.0900
     20 C20        -6.2796    4.7543   50.1830 C.ar    1  ZINC000301324012   -0.0600
     21 Cl21       -7.5163    3.8335   49.3853 Cl      1  ZINC000301324012   -0.0600
     22 C22        -6.1864    0.3605   50.4572 C.ar    1  ZINC000301324012   -0.0200
     23 C23        -7.1831   -0.1247   51.2783 C.ar    1  ZINC000301324012   -0.0800
     24 C24        -9.2041    0.0549   57.0002 C.ar    1  ZINC000301324012    0.1200
     25 C25        -9.6571   -0.8387   57.9519 C.ar    1  ZINC000301324012   -0.1600
     26 C26        -9.2696   -0.6732   59.2730 C.ar    1  ZINC000301324012   -0.0700
     27 C27        -8.4373    0.3898   59.5882 C.ar    1  ZINC000301324012   -0.1700
     28 C28        -8.0243    1.2431   58.5823 C.ar    1  ZINC000301324012    0.1100
     29 N29        -8.4088    1.0521   57.3356 N.ar    1  ZINC000301324012   -0.4900
     30 H30       -11.6973    0.2858   55.9589 H       1  ZINC000301324012    0.0700
     31 H31       -10.7432    1.7210   55.5139 H       1  ZINC000301324012    0.0600
     32 H32       -11.2098    0.5406   54.2661 H       1  ZINC000301324012    0.0700
     33 H33        -7.9888    1.1168   54.9843 H       1  ZINC000301324012    0.4100
     34 H34        -6.5161    1.7179   54.0495 H       1  ZINC000301324012    0.1400
     35 H35        -4.7404    2.5617   52.5714 H       1  ZINC000301324012    0.1500
     36 H36        -4.6693    3.4169   48.2307 H       1  ZINC000301324012    0.4300
     37 H37        -2.9154    4.9000   50.5190 H       1  ZINC000301324012    0.1700
     38 H38        -3.5409    6.7959   51.9586 H       1  ZINC000301324012    0.1400
     39 H39        -5.9108    7.3816   52.2662 H       1  ZINC000301324012    0.1400
     40 H40        -7.6635    6.0756   51.1345 H       1  ZINC000301324012    0.1400
     41 H41        -6.0880   -0.0151   49.4494 H       1  ZINC000301324012    0.1500
     42 H42        -7.8667   -0.8770   50.9133 H       1  ZINC000301324012    0.1500
     43 H43       -10.3052   -1.6556   57.6704 H       1  ZINC000301324012    0.1400
     44 H44        -9.6084   -1.3559   60.0382 H       1  ZINC000301324012    0.1400
     45 H45        -8.1159    0.5493   60.6069 H       1  ZINC000301324012    0.1400
     46 H46        -7.3762    2.0737   58.8197 H       1  ZINC000301324012    0.1600
@<TRIPOS>BOND
     1     1     2    1
     2     1    30    1
     3     1    31    1
     4     1    32    1
     5     2     3    1
     6     2     4    1
     7     2    24    1
     8     4     5   am
     9     4    33    1
    10     5     6    2
    11     5     7    1
    12     7    23   ar
    13     7     8   ar
    14     8     9   ar
    15     8    34    1
    16     9    10   ar
    17     9    35    1
    18    10    11    1
    19    10    22   ar
    20    11    12    2
    21    11    13    2
    22    11    14   am
    23    14    15    1
    24    14    36    1
    25    15    20   ar
    26    15    16   ar
    27    16    17   ar
    28    16    37    1
    29    17    18   ar
    30    17    38    1
    31    18    19   ar
    32    18    39    1
    33    19    20   ar
    34    19    40    1
    35    20    21    1
    36    22    23   ar
    37    22    41    1
    38    23    42    1
    39    24    29   ar
    40    24    25   ar
    41    25    26   ar
    42    25    43    1
    43    26    27   ar
    44    26    44    1
    45    27    28   ar
    46    27    45    1
    47    28    29   ar
    48    28    46    1
@<TRIPOS>SUBSTRUCTURE
     1 ZINC000301324012        1 TEMP              0 ****  ****    0 ROOT


##########                                Name:    ZINC000579444893
##########                DOCK_Rotatable_Bonds:                   8
##########                         Heavy_Atoms:                  26
##########                    Molecular_Weight:             365.494
##########                DOCK_Rotatable_Bonds:                   8
##########                       Formal_Charge:         -0.00999993
##########                     HBond_Acceptors:                   7
##########                        HBond_Donors:                   1
##########                         Heavy_Atoms:                  26
##########                          Grid_Score:          -32.575218
##########                     Grid_vdw_energy:          -31.163054
##########                      Grid_es_energy:           -1.412164
##########           Internal_energy_repulsive:           31.427418

@<TRIPOS>MOLECULE
ZINC000579444893
 58 60 1 0 0
SMALL
USER_CHARGES


@<TRIPOS>ATOM
      1 C1         -5.2974    5.0243   55.7094 C.3     1  ZINC000579444893   -0.1600
      2 C2         -6.5372    4.3076   55.1708 C.3     1  ZINC000579444893    0.1700
      3 H3         -7.4298    4.8698   55.4451 H       1  ZINC000579444893    0.0900
      4 N4         -6.4501    4.2110   53.7116 N.am    1  ZINC000579444893   -0.7400
      5 C5         -7.5229    4.5068   52.9514 C.2     1  ZINC000579444893    0.7100
      6 O6         -8.5636    4.8524   53.4768 O.2     1  ZINC000579444893   -0.5900
      7 N7         -7.4422    4.4195   51.6089 N.am    1  ZINC000579444893   -0.6300
      8 C8         -8.6079    4.7427   50.7826 C.3     1  ZINC000579444893    0.0800
      9 C9         -6.1889    4.0014   50.9760 C.3     1  ZINC000579444893    0.1100
     10 C10        -6.4458    2.7765   50.0959 C.3     1  ZINC000579444893    0.0600
     11 H11        -7.1919    3.0146   49.3379 H       1  ZINC000579444893    0.1000
     12 C12        -6.9373    1.5996   50.9648 C.3     1  ZINC000579444893   -0.1600
     13 C13        -6.2375    0.3737   50.3209 C.3     1  ZINC000579444893    0.0800
     14 H14        -6.7919    0.0195   49.4519 H       1  ZINC000579444893    0.1000
     15 F15        -6.0659   -0.6532   51.2554 F       1  ZINC000579444893   -0.2000
     16 C16        -4.8738    0.9767   49.9011 C.3     1  ZINC000579444893    0.0200
     17 N17        -5.1909    2.3517   49.4486 N.3     1  ZINC000579444893   -0.5000
     18 C18        -4.0951    3.2767   49.7673 C.3     1  ZINC000579444893    0.1000
     19 C19        -2.8368    2.8227   49.0735 C.2     1  ZINC000579444893    0.0800
     20 C20        -2.7495    2.3487   47.8091 C.2     1  ZINC000579444893   -0.2500
     21 C21        -1.4084    2.0422   47.5559 C.2     1  ZINC000579444893    0.0400
     22 N22        -0.7155    2.3222   48.6298 N.2     1  ZINC000579444893   -0.2900
     23 N23        -1.5942    2.8214   49.5998 N.pl3   1  ZINC000579444893   -0.3700
     24 C24        -1.2299    3.2566   50.9505 C.3     1  ZINC000579444893    0.0900
     25 C25        -6.6151    2.9024   55.7712 C.3     1  ZINC000579444893   -0.1000
     26 C26        -6.6802    2.9763   57.3170 C.3     1  ZINC000579444893   -0.1200
     27 C27        -7.3467    1.6304   57.6956 C.3     1  ZINC000579444893   -0.1300
     28 C28        -8.4020    1.4072   56.5928 C.3     1  ZINC000579444893   -0.1300
     29 C29        -7.9368    2.2160   55.3692 C.3     1  ZINC000579444893   -0.1200
     30 H30        -5.1910    5.9889   55.2131 H       1  ZINC000579444893    0.0600
     31 H31        -5.4044    5.1781   56.7832 H       1  ZINC000579444893    0.0700
     32 H32        -4.4135    4.4166   55.5157 H       1  ZINC000579444893    0.0500
     33 H33        -5.6202    3.9341   53.2926 H       1  ZINC000579444893    0.4000
     34 H34        -8.6440    5.8184   50.6101 H       1  ZINC000579444893    0.0600
     35 H35        -8.5310    4.2239   49.8270 H       1  ZINC000579444893    0.0800
     36 H36        -9.5160    4.4264   51.2957 H       1  ZINC000579444893    0.0700
     37 H37        -5.8027    4.8151   50.3623 H       1  ZINC000579444893    0.0900
     38 H38        -5.4596    3.7491   51.7457 H       1  ZINC000579444893    0.0900
     39 H39        -6.6192    1.7254   51.9996 H       1  ZINC000579444893    0.1100
     40 H40        -8.0210    1.5012   50.9028 H       1  ZINC000579444893    0.0800
     41 H41        -4.1927    1.0034   50.7517 H       1  ZINC000579444893    0.0600
     42 H42        -4.4396    0.4007   49.0841 H       1  ZINC000579444893    0.0900
     43 H43        -4.3557    4.2792   49.4280 H       1  ZINC000579444893    0.1100
     44 H44        -3.9317    3.2888   50.8449 H       1  ZINC000579444893    0.0500
     45 H45        -3.5704    2.2279   47.1177 H       1  ZINC000579444893    0.1500
     46 H46        -1.0134    1.6429   46.6334 H       1  ZINC000579444893    0.1800
     47 H47        -1.0372    4.3294   50.9469 H       1  ZINC000579444893    0.0800
     48 H48        -2.0481    3.0367   51.6362 H       1  ZINC000579444893    0.0800
     49 H49        -0.3332    2.7275   51.2732 H       1  ZINC000579444893    0.0900
     50 H50        -5.7619    2.3041   55.4515 H       1  ZINC000579444893    0.0800
     51 H51        -5.6794    3.0451   57.7430 H       1  ZINC000579444893    0.0700
     52 H52        -7.2964    3.8161   57.6379 H       1  ZINC000579444893    0.0700
     53 H53        -6.6117    0.8255   57.6888 H       1  ZINC000579444893    0.0700
     54 H54        -7.8251    1.7030   58.6723 H       1  ZINC000579444893    0.0700
     55 H55        -8.4602    0.3484   56.3404 H       1  ZINC000579444893    0.0600
     56 H56        -9.3750    1.7653   56.9290 H       1  ZINC000579444893    0.0600
     57 H57        -8.6840    2.9666   55.1117 H       1  ZINC000579444893    0.0600
     58 H58        -7.7692    1.5498   54.5230 H       1  ZINC000579444893    0.0600
@<TRIPOS>BOND
     1     1     2    1
     2     1    30    1
     3     1    31    1
     4     1    32    1
     5     2     3    1
     6     2     4    1
     7     2    25    1
     8     4     5   am
     9     4    33    1
    10     5     6    2
    11     5     7   am
    12     7     8    1
    13     7     9    1
    14     8    34    1
    15     8    35    1
    16     8    36    1
    17     9    10    1
    18     9    37    1
    19     9    38    1
    20    10    11    1
    21    10    17    1
    22    10    12    1
    23    12    13    1
    24    12    39    1
    25    12    40    1
    26    13    14    1
    27    13    15    1
    28    13    16    1
    29    16    17    1
    30    16    41    1
    31    16    42    1
    32    17    18    1
    33    18    19    1
    34    18    43    1
    35    18    44    1
    36    19    23    1
    37    19    20    2
    38    20    21    1
    39    20    45    1
    40    21    22    2
    41    21    46    1
    42    22    23    1
    43    23    24    1
    44    24    47    1
    45    24    48    1
    46    24    49    1
    47    25    29    1
    48    25    26    1
    49    25    50    1
    50    26    27    1
    51    26    51    1
    52    26    52    1
    53    27    28    1
    54    27    53    1
    55    27    54    1
    56    28    29    1
    57    28    55    1
    58    28    56    1
    59    29    57    1
    60    29    58    1
@<TRIPOS>SUBSTRUCTURE
     1 ZINC000579444893        1 TEMP              0 ****  ****    0 ROOT


##########                                Name:    ZINC000329637067
##########                DOCK_Rotatable_Bonds:                   5
##########                         Heavy_Atoms:                  26
##########                    Molecular_Weight:             362.429
##########                DOCK_Rotatable_Bonds:                   5
##########                       Formal_Charge:           0.0199998
##########                     HBond_Acceptors:                   8
##########                        HBond_Donors:                   0
##########                         Heavy_Atoms:                  26
##########                          Grid_Score:          -32.568996
##########                     Grid_vdw_energy:          -31.343744
##########                      Grid_es_energy:           -1.225253
##########           Internal_energy_repulsive:           29.549988

@<TRIPOS>MOLECULE
ZINC000329637067
 52 54 1 0 0
SMALL
USER_CHARGES


@<TRIPOS>ATOM
      1 C1         -1.4673    2.8895   51.3859 C.3     1  ZINC000329637067   -0.1300
      2 C2         -1.3692    2.5471   49.9216 C.2     1  ZINC000329637067    0.2200
      3 C3         -0.1583    2.3056   49.3507 C.2     1  ZINC000329637067   -0.2900
      4 C4         -0.0993    1.9905   47.9900 C.2     1  ZINC000329637067    0.2800
      5 C5          1.2302    1.7183   47.3346 C.3     1  ZINC000329637067   -0.1200
      6 N6         -1.2090    1.9316   47.2820 N.2     1  ZINC000329637067   -0.5500
      7 C7         -2.3947    2.1697   47.8479 C.2     1  ZINC000329637067    0.6400
      8 O8         -3.4070    2.1088   47.1705 O.2     1  ZINC000329637067   -0.5300
      9 N9         -2.4894    2.4704   49.1567 N.am    1  ZINC000329637067   -0.5000
     10 C10        -3.8019    2.7271   49.7547 C.3     1  ZINC000329637067    0.0700
     11 C11        -4.5494    1.4270   49.9030 C.2     1  ZINC000329637067    0.5100
     12 O12        -4.1032    0.4116   49.4121 O.2     1  ZINC000329637067   -0.5200
     13 N13        -5.7136    1.3924   50.5811 N.am    1  ZINC000329637067   -0.6100
     14 C14        -6.4538    0.1325   50.7340 C.3     1  ZINC000329637067    0.1000
     15 C15        -6.7275   -0.1010   52.2230 C.3     1  ZINC000329637067   -0.1400
     16 C16        -7.4411    1.1217   52.8042 C.3     1  ZINC000329637067   -0.1000
     17 C17        -6.5426    2.3526   52.6656 C.3     1  ZINC000329637067   -0.1200
     18 H18        -5.6008    2.1760   53.1851 H       1  ZINC000329637067    0.1000
     19 C19        -7.2325    3.5494   53.2680 C.2     1  ZINC000329637067    0.5300
     20 O20        -7.6938    4.4094   52.5480 O.2     1  ZINC000329637067   -0.5300
     21 N21        -7.3365    3.6641   54.6068 N.am    1  ZINC000329637067   -0.6200
     22 C22        -6.7790    2.6366   55.5006 C.3     1  ZINC000329637067    0.0800
     23 C23        -5.9126    3.3327   56.5565 C.3     1  ZINC000329637067    0.0500
     24 O24        -6.6730    4.3711   57.1791 O.3     1  ZINC000329637067   -0.3800
     25 C25        -7.0842    5.4103   56.2877 C.3     1  ZINC000329637067    0.0500
     26 C26        -8.0056    4.8233   55.2182 C.3     1  ZINC000329637067    0.0700
     27 C27        -6.2636    2.6128   51.1867 C.3     1  ZINC000329637067    0.1200
     28 H28        -2.1416    2.1888   51.8784 H       1  ZINC000329637067    0.0900
     29 H29        -0.4792    2.8241   51.8414 H       1  ZINC000329637067    0.1000
     30 H30        -1.8523    3.9031   51.4970 H       1  ZINC000329637067    0.0900
     31 H31         0.7450    2.3570   49.9405 H       1  ZINC000329637067    0.1600
     32 H32         1.4583    0.6547   47.4037 H       1  ZINC000329637067    0.1000
     33 H33         1.1855    2.0130   46.2861 H       1  ZINC000329637067    0.0900
     34 H34         2.0083    2.2905   47.8399 H       1  ZINC000329637067    0.0900
     35 H35        -3.6712    3.1848   50.7353 H       1  ZINC000329637067    0.1200
     36 H36        -4.3686    3.4008   49.1119 H       1  ZINC000329637067    0.1300
     37 H37        -7.3986    0.1959   50.1943 H       1  ZINC000329637067    0.0800
     38 H38        -5.8592   -0.6910   50.3382 H       1  ZINC000329637067    0.0900
     39 H39        -7.3584   -0.9817   52.3432 H       1  ZINC000329637067    0.0900
     40 H40        -5.7840   -0.2547   52.7466 H       1  ZINC000329637067    0.0700
     41 H41        -8.3728    1.2894   52.2638 H       1  ZINC000329637067    0.0800
     42 H42        -7.6591    0.9480   53.8580 H       1  ZINC000329637067    0.0800
     43 H43        -7.5895    2.0960   55.9892 H       1  ZINC000329637067    0.0800
     44 H44        -6.1681    1.9414   54.9248 H       1  ZINC000329637067    0.1000
     45 H45        -5.6025    2.6075   57.3088 H       1  ZINC000329637067    0.1100
     46 H46        -5.0320    3.7626   56.0792 H       1  ZINC000329637067    0.0600
     47 H47        -7.6170    6.1797   56.8465 H       1  ZINC000329637067    0.1100
     48 H48        -6.2079    5.8477   55.8094 H       1  ZINC000329637067    0.0600
     49 H49        -8.2093    5.5755   54.4561 H       1  ZINC000329637067    0.1000
     50 H50        -8.9409    4.5011   55.6760 H       1  ZINC000329637067    0.0800
     51 H51        -5.5456    3.4270   51.0880 H       1  ZINC000329637067    0.1000
     52 H52        -7.1920    2.8783   50.6810 H       1  ZINC000329637067    0.0800
@<TRIPOS>BOND
     1     1     2    1
     2     1    28    1
     3     1    29    1
     4     1    30    1
     5     2     9    1
     6     2     3    2
     7     3     4    1
     8     3    31    1
     9     4     5    1
    10     4     6    2
    11     5    32    1
    12     5    33    1
    13     5    34    1
    14     6     7    1
    15     7     8    2
    16     7     9   am
    17     9    10    1
    18    10    11    1
    19    10    35    1
    20    10    36    1
    21    11    12    2
    22    11    13   am
    23    13    27    1
    24    13    14    1
    25    14    15    1
    26    14    37    1
    27    14    38    1
    28    15    16    1
    29    15    39    1
    30    15    40    1
    31    16    17    1
    32    16    41    1
    33    16    42    1
    34    17    18    1
    35    17    19    1
    36    17    27    1
    37    19    20    2
    38    19    21   am
    39    21    26    1
    40    21    22    1
    41    22    23    1
    42    22    43    1
    43    22    44    1
    44    23    24    1
    45    23    45    1
    46    23    46    1
    47    24    25    1
    48    25    26    1
    49    25    47    1
    50    25    48    1
    51    26    49    1
    52    26    50    1
    53    27    51    1
    54    27    52    1
@<TRIPOS>SUBSTRUCTURE
     1 ZINC000329637067        1 TEMP              0 ****  ****    0 ROOT


##########                                Name:    ZINC000375302598
##########                DOCK_Rotatable_Bonds:                   8
##########                         Heavy_Atoms:                  27
##########                    Molecular_Weight:             368.479
##########                DOCK_Rotatable_Bonds:                   8
##########                       Formal_Charge:               -0.02
##########                     HBond_Acceptors:                   6
##########                        HBond_Donors:                   1
##########                         Heavy_Atoms:                  27
##########                          Grid_Score:          -32.564281
##########                     Grid_vdw_energy:          -32.269310
##########                      Grid_es_energy:           -0.294971
##########           Internal_energy_repulsive:            7.911763

@<TRIPOS>MOLECULE
ZINC000375302598
 55 58 1 0 0
SMALL
USER_CHARGES


@<TRIPOS>ATOM
      1 C1         -2.6594    3.3982   49.7883 C.3     1  ZINC000375302598   -0.1500
      2 C2         -3.1715    2.3457   48.8029 C.3     1  ZINC000375302598   -0.0300
      3 C3         -4.5323    1.8681   49.2402 C.2     1  ZINC000375302598    0.1800
      4 N4         -4.7873    0.8490   50.0249 N.2     1  ZINC000375302598   -0.4700
      5 C5         -6.1270    0.8029   50.1348 C.2     1  ZINC000375302598    0.1800
      6 C6         -6.9225   -0.1960   50.9350 C.3     1  ZINC000375302598    0.1500
      7 N7         -7.9822    0.5021   51.6751 N.3     1  ZINC000375302598   -0.5300
      8 C8         -9.0505   -0.4266   52.0659 C.3     1  ZINC000375302598    0.0500
      9 C9        -10.2004    0.3562   52.7037 C.3     1  ZINC000375302598   -0.1100
     10 C10        -9.6797    1.1099   53.9306 C.3     1  ZINC000375302598   -0.1300
     11 C11        -8.5357    2.0343   53.5045 C.3     1  ZINC000375302598    0.1500
     12 H12        -8.9095    2.7727   52.7952 H       1  ZINC000375302598    0.1000
     13 N13        -7.9943    2.7173   54.6819 N.am    1  ZINC000375302598   -0.7300
     14 C14        -7.8121    4.0526   54.6620 C.2     1  ZINC000375302598    0.5200
     15 O15        -8.0949    4.6884   53.6688 O.2     1  ZINC000375302598   -0.5300
     16 C16        -7.2568    4.7554   55.8739 C.3     1  ZINC000375302598   -0.1100
     17 C17        -7.8672    4.1495   57.1392 C.3     1  ZINC000375302598   -0.1200
     18 H18        -8.9208    3.8790   57.0699 H       1  ZINC000375302598    0.1200
     19 C19        -7.3574    4.6655   58.4863 C.3     1  ZINC000375302598   -0.1700
     20 C20        -6.9665    3.2660   58.0048 C.3     1  ZINC000375302598   -0.1100
     21 H21        -5.9390    3.1167   57.6730 H       1  ZINC000375302598    0.1100
     22 C22        -7.6035    2.0888   58.6971 C.ar    1  ZINC000375302598   -0.0500
     23 C23        -7.9281    2.1684   60.0385 C.ar    1  ZINC000375302598   -0.1200
     24 C24        -8.5125    1.0885   60.6735 C.ar    1  ZINC000375302598   -0.1200
     25 C25        -8.7727   -0.0708   59.9671 C.ar    1  ZINC000375302598   -0.1300
     26 C26        -8.4489   -0.1502   58.6255 C.ar    1  ZINC000375302598   -0.1200
     27 C27        -7.8685    0.9313   57.9894 C.ar    1  ZINC000375302598   -0.1100
     28 C28        -7.4340    1.2029   52.8434 C.3     1  ZINC000375302598    0.0500
     29 N29        -6.6093    1.7783   49.4245 N.2     1  ZINC000375302598   -0.3800
     30 O30        -5.7095    2.4059   48.9070 O.3     1  ZINC000375302598    0.0800
     31 H31        -2.5880    2.9597   50.7837 H       1  ZINC000375302598    0.0600
     32 H32        -1.6753    3.7437   49.4720 H       1  ZINC000375302598    0.0800
     33 H33        -3.3503    4.2410   49.8114 H       1  ZINC000375302598    0.0600
     34 H34        -3.2430    2.7842   47.8076 H       1  ZINC000375302598    0.1100
     35 H35        -2.4807    1.5029   48.7799 H       1  ZINC000375302598    0.1000
     36 H36        -7.3704   -0.9268   50.2617 H       1  ZINC000375302598    0.0700
     37 H37        -6.2635   -0.7057   51.6380 H       1  ZINC000375302598    0.1100
     38 H38        -9.4148   -0.9530   51.1837 H       1  ZINC000375302598    0.0800
     39 H39        -8.6601   -1.1479   52.7837 H       1  ZINC000375302598    0.0400
     40 H40       -10.6004    1.0683   51.9819 H       1  ZINC000375302598    0.0700
     41 H41       -10.9866   -0.3350   53.0078 H       1  ZINC000375302598    0.0700
     42 H42       -10.4856    1.7032   54.3629 H       1  ZINC000375302598    0.0700
     43 H43        -9.3153    0.3960   54.6692 H       1  ZINC000375302598    0.0600
     44 H44        -7.7670    2.2086   55.4759 H       1  ZINC000375302598    0.4000
     45 H45        -6.1737    4.6348   55.8993 H       1  ZINC000375302598    0.1000
     46 H46        -7.5031    5.8160   55.8236 H       1  ZINC000375302598    0.1000
     47 H47        -6.5872    5.4366   58.4712 H       1  ZINC000375302598    0.1000
     48 H48        -8.0756    4.7341   59.3035 H       1  ZINC000375302598    0.1000
     49 H49        -7.7249    3.0743   60.5904 H       1  ZINC000375302598    0.1200
     50 H50        -8.7654    1.1506   61.7216 H       1  ZINC000375302598    0.1200
     51 H51        -9.2286   -0.9148   60.4634 H       1  ZINC000375302598    0.1200
     52 H52        -8.6519   -1.0560   58.0738 H       1  ZINC000375302598    0.1200
     53 H53        -7.6156    0.8692   56.9413 H       1  ZINC000375302598    0.1200
     54 H54        -7.0511    0.4739   53.5575 H       1  ZINC000375302598    0.0400
     55 H55        -6.6243    1.8598   52.5259 H       1  ZINC000375302598    0.0900
@<TRIPOS>BOND
     1     1     2    1
     2     1    31    1
     3     1    32    1
     4     1    33    1
     5     2     3    1
     6     2    34    1
     7     2    35    1
     8     3    30    1
     9     3     4    2
    10     4     5    1
    11     5     6    1
    12     5    29    2
    13     6     7    1
    14     6    36    1
    15     6    37    1
    16     7    28    1
    17     7     8    1
    18     8     9    1
    19     8    38    1
    20     8    39    1
    21     9    10    1
    22     9    40    1
    23     9    41    1
    24    10    11    1
    25    10    42    1
    26    10    43    1
    27    11    12    1
    28    11    13    1
    29    11    28    1
    30    13    14   am
    31    13    44    1
    32    14    15    2
    33    14    16    1
    34    16    17    1
    35    16    45    1
    36    16    46    1
    37    17    18    1
    38    17    20    1
    39    17    19    1
    40    19    20    1
    41    19    47    1
    42    19    48    1
    43    20    21    1
    44    20    22    1
    45    22    27   ar
    46    22    23   ar
    47    23    24   ar
    48    23    49    1
    49    24    25   ar
    50    24    50    1
    51    25    26   ar
    52    25    51    1
    53    26    27   ar
    54    26    52    1
    55    27    53    1
    56    28    54    1
    57    28    55    1
    58    29    30    1
@<TRIPOS>SUBSTRUCTURE
     1 ZINC000375302598        1 TEMP              0 ****  ****    0 ROOT


##########                                Name:    ZINC000534890536
##########                DOCK_Rotatable_Bonds:                   6
##########                         Heavy_Atoms:                  30
##########                    Molecular_Weight:             411.476
##########                DOCK_Rotatable_Bonds:                   6
##########                       Formal_Charge:          0.00999957
##########                     HBond_Acceptors:                   7
##########                        HBond_Donors:                   1
##########                         Heavy_Atoms:                  30
##########                          Grid_Score:          -32.562859
##########                     Grid_vdw_energy:          -31.745129
##########                      Grid_es_energy:           -0.817731
##########           Internal_energy_repulsive:           15.331227

@<TRIPOS>MOLECULE
ZINC000534890536
 56 59 1 0 0
SMALL
USER_CHARGES


@<TRIPOS>ATOM
      1 C1        -16.9078   -4.2804   51.3660 C.3     1  ZINC000534890536    0.0300
      2 O2        -16.2009   -5.3242   52.0391 O.3     1  ZINC000534890536   -0.3200
      3 C3        -15.7813   -5.0679   53.3060 C.ar    1  ZINC000534890536    0.1300
      4 C4        -15.0218   -6.0062   53.9896 C.ar    1  ZINC000534890536   -0.2100
      5 C5        -14.5960   -5.7430   55.2771 C.ar    1  ZINC000534890536   -0.0700
      6 C6        -14.9266   -4.5458   55.8848 C.ar    1  ZINC000534890536   -0.1100
      7 C7        -14.4613   -4.2615   57.2896 C.3     1  ZINC000534890536   -0.0600
      8 H8        -13.8265   -5.0668   57.6592 H       1  ZINC000534890536    0.0900
      9 C9        -15.6666   -4.0238   58.2373 C.3     1  ZINC000534890536   -0.1200
     10 C10       -15.0681   -3.1235   59.3386 C.3     1  ZINC000534890536    0.1000
     11 N11       -13.8813   -2.4683   58.7696 N.am    1  ZINC000534890536   -0.6400
     12 C12       -13.0653   -1.6170   59.4223 C.2     1  ZINC000534890536    0.7300
     13 O13       -13.2854   -1.3342   60.5841 O.2     1  ZINC000534890536   -0.5700
     14 N14       -12.0052   -1.0791   58.7871 N.am    1  ZINC000534890536   -0.7300
     15 C15       -11.1193   -0.1525   59.4960 C.3     1  ZINC000534890536    0.1600
     16 H16       -11.7184    0.5444   60.0821 H       1  ZINC000534890536    0.1200
     17 C17       -10.1995   -0.9427   60.4302 C.3     1  ZINC000534890536   -0.1300
     18 C18        -9.1081    0.0016   60.9485 C.3     1  ZINC000534890536   -0.1300
     19 C19        -8.2025    0.3916   59.7797 C.3     1  ZINC000534890536    0.1100
     20 N20        -8.9980    0.8653   58.6541 N.am    1  ZINC000534890536   -0.5600
     21 C21        -8.3563    1.6321   57.6734 C.ar    1  ZINC000534890536    0.1000
     22 C22        -8.1151    1.0940   56.4173 C.ar    1  ZINC000534890536   -0.0800
     23 C23        -7.4822    1.8530   55.4514 C.ar    1  ZINC000534890536   -0.1200
     24 C24        -7.0883    3.1474   55.7345 C.ar    1  ZINC000534890536   -0.0800
     25 C25        -7.3264    3.6884   56.9850 C.ar    1  ZINC000534890536   -0.1500
     26 C26        -7.9643    2.9367   57.9544 C.ar    1  ZINC000534890536    0.1100
     27 F27        -8.1973    3.4649   59.1758 F       1  ZINC000534890536   -0.1300
     28 C28       -10.2969    0.6126   58.4992 C.2     1  ZINC000534890536    0.5000
     29 O29       -10.8468    1.0247   57.4997 O.2     1  ZINC000534890536   -0.5100
     30 C30       -13.7300   -2.8981   57.3671 C.3     1  ZINC000534890536    0.1300
     31 C31       -15.6832   -3.6088   55.2054 C.ar    1  ZINC000534890536   -0.0700
     32 C32       -16.1069   -3.8650   53.9157 C.ar    1  ZINC000534890536   -0.1500
     33 H33       -17.8078   -4.0302   51.9278 H       1  ZINC000534890536    0.0600
     34 H34       -16.2700   -3.3997   51.2907 H       1  ZINC000534890536    0.0600
     35 H35       -17.1846   -4.6151   50.3663 H       1  ZINC000534890536    0.1000
     36 H36       -14.7638   -6.9417   53.5158 H       1  ZINC000534890536    0.1300
     37 H37       -14.0047   -6.4731   55.8098 H       1  ZINC000534890536    0.1300
     38 H38       -16.4728   -3.5093   57.7144 H       1  ZINC000534890536    0.0800
     39 H39       -16.0179   -4.9660   58.6581 H       1  ZINC000534890536    0.0900
     40 H40       -15.7977   -2.3719   59.6401 H       1  ZINC000534890536    0.0700
     41 H41       -14.7808   -3.7297   60.1977 H       1  ZINC000534890536    0.0700
     42 H42       -11.8288   -1.3057   57.8605 H       1  ZINC000534890536    0.4000
     43 H43       -10.7759   -1.3329   61.2690 H       1  ZINC000534890536    0.0900
     44 H44        -9.7420   -1.7674   59.8835 H       1  ZINC000534890536    0.0800
     45 H45        -9.5678    0.8958   61.3693 H       1  ZINC000534890536    0.0800
     46 H46        -8.5198   -0.5047   61.7139 H       1  ZINC000534890536    0.1000
     47 H47        -7.5230    1.1820   60.0986 H       1  ZINC000534890536    0.0800
     48 H48        -7.6205   -0.4763   59.4697 H       1  ZINC000534890536    0.0700
     49 H49        -8.4216    0.0826   56.1947 H       1  ZINC000534890536    0.1300
     50 H50        -7.2946    1.4340   54.4739 H       1  ZINC000534890536    0.1300
     51 H51        -6.5932    3.7377   54.9776 H       1  ZINC000534890536    0.1400
     52 H52        -7.0174    4.7001   57.2031 H       1  ZINC000534890536    0.1400
     53 H53       -12.6755   -3.0174   57.1185 H       1  ZINC000534890536    0.0800
     54 H54       -14.1995   -2.1779   56.6969 H       1  ZINC000534890536    0.0700
     55 H55       -15.9398   -2.6743   55.6820 H       1  ZINC000534890536    0.1300
     56 H56       -16.6978   -3.1329   53.3855 H       1  ZINC000534890536    0.1300
@<TRIPOS>BOND
     1     1     2    1
     2     1    33    1
     3     1    34    1
     4     1    35    1
     5     2     3    1
     6     3    32   ar
     7     3     4   ar
     8     4     5   ar
     9     4    36    1
    10     5     6   ar
    11     5    37    1
    12     6     7    1
    13     6    31   ar
    14     7     8    1
    15     7    30    1
    16     7     9    1
    17     9    10    1
    18     9    38    1
    19     9    39    1
    20    10    11    1
    21    10    40    1
    22    10    41    1
    23    11    12   am
    24    11    30    1
    25    12    13    2
    26    12    14   am
    27    14    15    1
    28    14    42    1
    29    15    16    1
    30    15    28    1
    31    15    17    1
    32    17    18    1
    33    17    43    1
    34    17    44    1
    35    18    19    1
    36    18    45    1
    37    18    46    1
    38    19    20    1
    39    19    47    1
    40    19    48    1
    41    20    21    1
    42    20    28   am
    43    21    26   ar
    44    21    22   ar
    45    22    23   ar
    46    22    49    1
    47    23    24   ar
    48    23    50    1
    49    24    25   ar
    50    24    51    1
    51    25    26   ar
    52    25    52    1
    53    26    27    1
    54    28    29    2
    55    30    53    1
    56    30    54    1
    57    31    32   ar
    58    31    55    1
    59    32    56    1
@<TRIPOS>SUBSTRUCTURE
     1 ZINC000534890536        1 TEMP              0 ****  ****    0 ROOT


##########                                Name:    ZINC000505965769
##########                DOCK_Rotatable_Bonds:                   9
##########                         Heavy_Atoms:                  29
##########                    Molecular_Weight:              419.88
##########                DOCK_Rotatable_Bonds:                   9
##########                       Formal_Charge:               -0.02
##########                     HBond_Acceptors:                   7
##########                        HBond_Donors:                   1
##########                         Heavy_Atoms:                  29
##########                          Grid_Score:          -32.554554
##########                     Grid_vdw_energy:          -32.567913
##########                      Grid_es_energy:            0.013359
##########           Internal_energy_repulsive:           17.222313

@<TRIPOS>MOLECULE
ZINC000505965769
 52 54 1 0 0
SMALL
USER_CHARGES


@<TRIPOS>ATOM
      1 C1          0.7934    3.0852   50.0891 C.3     1  ZINC000505965769    0.0200
      2 O2         -0.1833    4.0439   49.6778 O.3     1  ZINC000505965769   -0.3100
      3 C3         -1.4792    3.6426   49.6797 C.ar    1  ZINC000505965769    0.1800
      4 C4         -1.9524    2.8238   48.6597 C.ar    1  ZINC000505965769   -0.2200
      5 C5         -3.2553    2.4145   48.6536 C.ar    1  ZINC000505965769   -0.0200
      6 C6         -4.1216    2.8189   49.6770 C.ar    1  ZINC000505965769   -0.2100
      7 C7         -5.5220    2.3799   49.6729 C.2     1  ZINC000505965769    0.3900
      8 O8         -6.4150    3.2007   49.6980 O.2     1  ZINC000505965769   -0.4400
      9 C9         -5.8508    0.9097   49.6376 C.3     1  ZINC000505965769   -0.1500
     10 C10        -5.6618    0.3111   51.0329 C.3     1  ZINC000505965769   -0.1300
     11 C11        -6.9810    0.3093   51.7616 C.2     1  ZINC000505965769    0.5200
     12 O12        -7.8622   -0.4499   51.4184 O.2     1  ZINC000505965769   -0.5300
     13 N13        -7.1812    1.1513   52.7948 N.am    1  ZINC000505965769   -0.7200
     14 C14        -8.4642    1.1507   53.5020 C.3     1  ZINC000505965769    0.1900
     15 H15        -9.0337    0.2649   53.2208 H       1  ZINC000505965769    0.1100
     16 C16        -8.2181    1.1387   54.9888 C.ar    1  ZINC000505965769   -0.1000
     17 C17        -7.1216    1.7976   55.5127 C.ar    1  ZINC000505965769   -0.0900
     18 C18        -6.8951    1.7873   56.8760 C.ar    1  ZINC000505965769   -0.1500
     19 C19        -7.7670    1.1170   57.7171 C.ar    1  ZINC000505965769    0.1000
     20 F20        -7.5467    1.1066   59.0500 F       1  ZINC000505965769   -0.1400
     21 C21        -8.8652    0.4577   57.1912 C.ar    1  ZINC000505965769   -0.1500
     22 C22        -9.0924    0.4736   55.8281 C.ar    1  ZINC000505965769   -0.0600
     23 C23        -9.2544    2.4057   53.1260 C.3     1  ZINC000505965769    0.0800
     24 H24       -10.1540    2.4828   53.7366 H       1  ZINC000505965769    0.0700
     25 C25        -8.3743    3.6686   53.3033 C.3     1  ZINC000505965769   -0.1500
     26 C26        -9.0620    4.6485   52.3139 C.3     1  ZINC000505965769   -0.1600
     27 C27        -9.5265    3.7026   51.1857 C.3     1  ZINC000505965769    0.0500
     28 O28        -9.5989    2.3788   51.7316 O.3     1  ZINC000505965769   -0.3700
     29 C29        -3.6456    3.6442   50.7057 C.ar    1  ZINC000505965769    0.0500
     30 Cl30       -4.7105    4.1516   51.9794 Cl      1  ZINC000505965769   -0.0200
     31 C31        -2.3277    4.0467   50.7043 C.ar    1  ZINC000505965769   -0.1600
     32 H32         0.7540    2.2197   49.4276 H       1  ZINC000505965769    0.0600
     33 H33         1.7856    3.5340   50.0414 H       1  ZINC000505965769    0.1100
     34 H34         0.5857    2.7707   51.1118 H       1  ZINC000505965769    0.0600
     35 H35        -1.2867    2.5107   47.8690 H       1  ZINC000505965769    0.1400
     36 H36        -3.6178    1.7791   47.8590 H       1  ZINC000505965769    0.1500
     37 H37        -6.8856    0.7762   49.3221 H       1  ZINC000505965769    0.1100
     38 H38        -5.1884    0.4061   48.9335 H       1  ZINC000505965769    0.1100
     39 H39        -5.2949   -0.7114   50.9430 H       1  ZINC000505965769    0.1000
     40 H40        -4.9399    0.9085   51.5898 H       1  ZINC000505965769    0.1000
     41 H41        -6.4759    1.7576   53.0700 H       1  ZINC000505965769    0.4000
     42 H42        -6.4416    2.3203   54.8565 H       1  ZINC000505965769    0.1300
     43 H43        -6.0380    2.3015   57.2851 H       1  ZINC000505965769    0.1400
     44 H44        -9.5458   -0.0657   57.8463 H       1  ZINC000505965769    0.1400
     45 H45        -9.9491   -0.0403   55.4177 H       1  ZINC000505965769    0.1400
     46 H46        -8.4252    4.0426   54.3258 H       1  ZINC000505965769    0.0700
     47 H47        -7.3430    3.4731   53.0094 H       1  ZINC000505965769    0.1000
     48 H48        -9.9141    5.1397   52.7838 H       1  ZINC000505965769    0.0700
     49 H49        -8.3497    5.3821   51.9364 H       1  ZINC000505965769    0.0800
     50 H50       -10.5101    4.0081   50.8286 H       1  ZINC000505965769    0.0700
     51 H51        -8.8099    3.7264   50.3647 H       1  ZINC000505965769    0.0700
     52 H52        -1.9560    4.6821   51.4945 H       1  ZINC000505965769    0.1500
@<TRIPOS>BOND
     1     1     2    1
     2     1    32    1
     3     1    33    1
     4     1    34    1
     5     2     3    1
     6     3    31   ar
     7     3     4   ar
     8     4     5   ar
     9     4    35    1
    10     5     6   ar
    11     5    36    1
    12     6     7    1
    13     6    29   ar
    14     7     8    2
    15     7     9    1
    16     9    10    1
    17     9    37    1
    18     9    38    1
    19    10    11    1
    20    10    39    1
    21    10    40    1
    22    11    12    2
    23    11    13   am
    24    13    14    1
    25    13    41    1
    26    14    15    1
    27    14    16    1
    28    14    23    1
    29    16    22   ar
    30    16    17   ar
    31    17    18   ar
    32    17    42    1
    33    18    19   ar
    34    18    43    1
    35    19    20    1
    36    19    21   ar
    37    21    22   ar
    38    21    44    1
    39    22    45    1
    40    23    24    1
    41    23    28    1
    42    23    25    1
    43    25    26    1
    44    25    46    1
    45    25    47    1
    46    26    27    1
    47    26    48    1
    48    26    49    1
    49    27    28    1
    50    27    50    1
    51    27    51    1
    52    29    30    1
    53    29    31   ar
    54    31    52    1
@<TRIPOS>SUBSTRUCTURE
     1 ZINC000505965769        1 TEMP              0 ****  ****    0 ROOT


##########                                Name:    ZINC000185180600
##########                DOCK_Rotatable_Bonds:                   7
##########                         Heavy_Atoms:                  26
##########                    Molecular_Weight:             395.953
##########                DOCK_Rotatable_Bonds:                   7
##########                       Formal_Charge:          0.00999977
##########                     HBond_Acceptors:                   7
##########                        HBond_Donors:                   0
##########                         Heavy_Atoms:                  26
##########                          Grid_Score:          -32.537952
##########                     Grid_vdw_energy:          -31.926668
##########                      Grid_es_energy:           -0.611285
##########           Internal_energy_repulsive:           20.898489

@<TRIPOS>MOLECULE
ZINC000185180600
 52 53 1 0 0
SMALL
USER_CHARGES


@<TRIPOS>ATOM
      1 C1        -10.1391    1.3034   64.7568 C.3     1  ZINC000185180600   -0.1500
      2 C2         -9.0491    0.9331   63.7490 C.3     1  ZINC000185180600   -0.0900
      3 C3         -8.3368   -0.3392   64.2126 C.3     1  ZINC000185180600   -0.1500
      4 C4         -9.6832    0.6916   62.3776 C.3     1  ZINC000185180600   -0.1300
      5 C5         -8.7056    1.1196   61.2813 C.3     1  ZINC000185180600    0.1300
      6 H6         -7.6832    0.9594   61.6234 H       1  ZINC000185180600    0.1100
      7 C7         -8.9112    2.6024   60.9652 C.3     1  ZINC000185180600   -0.1600
      8 N8         -8.9469    0.3250   60.0744 N.am    1  ZINC000185180600   -0.6000
      9 C9         -7.8491   -0.4260   59.4603 C.3     1  ZINC000185180600    0.0700
     10 C10       -10.1787    0.2848   59.5291 C.2     1  ZINC000185180600    0.5400
     11 O11       -11.0872    0.9077   60.0367 O.2     1  ZINC000185180600   -0.5300
     12 C12       -10.4273   -0.5340   58.2886 C.3     1  ZINC000185180600   -0.5000
     13 S13        -9.9089    0.4085   56.8279 S.o     1  ZINC000185180600    1.3200
     14 O14       -10.7107    1.5756   56.7083 O.2     1  ZINC000185180600   -0.8000
     15 C15       -10.2803   -0.7229   55.4594 C.3     1  ZINC000185180600   -0.3900
     16 C16        -9.8993   -0.0741   54.1538 C.2     1  ZINC000185180600    0.1000
     17 N17        -8.6915   -0.0073   53.6540 N.2     1  ZINC000185180600   -0.2800
     18 N18        -8.7604    0.6730   52.4313 N.pl3   1  ZINC000185180600   -0.3200
     19 C19        -7.6813    0.9535   51.5811 C.ar    1  ZINC000185180600    0.1700
     20 C20        -6.7106   -0.0113   51.3481 C.ar    1  ZINC000185180600   -0.1300
     21 C21        -5.6486    0.2673   50.5103 C.ar    1  ZINC000185180600   -0.0800
     22 C22        -5.5514    1.5073   49.9036 C.ar    1  ZINC000185180600   -0.0500
     23 Cl23       -4.2153    1.8546   48.8509 Cl      1  ZINC000185180600   -0.0600
     24 C24        -6.5178    2.4706   50.1342 C.ar    1  ZINC000185180600   -0.0800
     25 C25        -7.5849    2.1946   50.9664 C.ar    1  ZINC000185180600   -0.1100
     26 C26       -10.0517    1.0113   52.2164 C.2     1  ZINC000185180600    0.0600
     27 C27       -10.7768    0.5553   53.2641 C.2     1  ZINC000185180600   -0.2500
     28 H28        -9.6874    1.4754   65.7338 H       1  ZINC000185180600    0.0500
     29 H29       -10.6466    2.2097   64.4265 H       1  ZINC000185180600    0.0600
     30 H30       -10.8599    0.4888   64.8281 H       1  ZINC000185180600    0.0500
     31 H31        -8.3283    1.7475   63.6777 H       1  ZINC000185180600    0.0700
     32 H32        -7.8158   -0.1430   65.1497 H       1  ZINC000185180600    0.0500
     33 H33        -9.0699   -1.1316   64.3636 H       1  ZINC000185180600    0.0500
     34 H34        -7.6173   -0.6494   63.4550 H       1  ZINC000185180600    0.0500
     35 H35        -9.9139   -0.3678   62.2655 H       1  ZINC000185180600    0.0700
     36 H36       -10.6007    1.2741   62.2939 H       1  ZINC000185180600    0.0800
     37 H37        -9.9337    2.7626   60.6231 H       1  ZINC000185180600    0.0600
     38 H38        -8.7317    3.1936   61.8631 H       1  ZINC000185180600    0.0700
     39 H39        -8.2148    2.9074   60.1840 H       1  ZINC000185180600    0.0600
     40 H40        -7.8083   -1.4267   59.8904 H       1  ZINC000185180600    0.0600
     41 H41        -8.0155   -0.4991   58.3855 H       1  ZINC000185180600    0.0700
     42 H42        -6.9070    0.0889   59.6480 H       1  ZINC000185180600    0.0800
     43 H43        -9.8562   -1.4608   58.3445 H       1  ZINC000185180600    0.1500
     44 H44       -11.4897   -0.7659   58.2133 H       1  ZINC000185180600    0.1200
     45 H45        -9.7129   -1.6449   55.5861 H       1  ZINC000185180600    0.1400
     46 H46       -11.3464   -0.9500   55.4548 H       1  ZINC000185180600    0.1000
     47 H47        -6.7857   -0.9789   51.8220 H       1  ZINC000185180600    0.1400
     48 H48        -4.8933   -0.4829   50.3289 H       1  ZINC000185180600    0.1500
     49 H49        -6.4395    3.4378   49.6598 H       1  ZINC000185180600    0.1400
     50 H50        -8.3388    2.9467   51.1461 H       1  ZINC000185180600    0.1500
     51 H51       -10.4363    1.5454   51.3600 H       1  ZINC000185180600    0.1800
     52 H52       -11.8433    0.6647   53.3942 H       1  ZINC000185180600    0.1700
@<TRIPOS>BOND
     1     1     2    1
     2     1    28    1
     3     1    29    1
     4     1    30    1
     5     2     3    1
     6     2     4    1
     7     2    31    1
     8     3    32    1
     9     3    33    1
    10     3    34    1
    11     4     5    1
    12     4    35    1
    13     4    36    1
    14     5     6    1
    15     5     7    1
    16     5     8    1
    17     7    37    1
    18     7    38    1
    19     7    39    1
    20     8     9    1
    21     8    10   am
    22     9    40    1
    23     9    41    1
    24     9    42    1
    25    10    11    2
    26    10    12    1
    27    12    13    1
    28    12    43    1
    29    12    44    1
    30    13    14    2
    31    13    15    1
    32    15    16    1
    33    15    45    1
    34    15    46    1
    35    16    27    1
    36    16    17    2
    37    17    18    1
    38    18    19    1
    39    18    26    1
    40    19    25   ar
    41    19    20   ar
    42    20    21   ar
    43    20    47    1
    44    21    22   ar
    45    21    48    1
    46    22    23    1
    47    22    24   ar
    48    24    25   ar
    49    24    49    1
    50    25    50    1
    51    26    27    2
    52    26    51    1
    53    27    52    1
@<TRIPOS>SUBSTRUCTURE
     1 ZINC000185180600        1 TEMP              0 ****  ****    0 ROOT


##########                                Name:    ZINC000533037883
##########                DOCK_Rotatable_Bonds:                   7
##########                         Heavy_Atoms:                  27
##########                    Molecular_Weight:             368.479
##########                DOCK_Rotatable_Bonds:                   7
##########                       Formal_Charge:          0.00999947
##########                     HBond_Acceptors:                   6
##########                        HBond_Donors:                   1
##########                         Heavy_Atoms:                  27
##########                          Grid_Score:          -32.525314
##########                     Grid_vdw_energy:          -32.927769
##########                      Grid_es_energy:            0.402453
##########           Internal_energy_repulsive:           15.888493

@<TRIPOS>MOLECULE
ZINC000533037883
 55 58 1 0 0
SMALL
USER_CHARGES


@<TRIPOS>ATOM
      1 O1         -9.4880   -1.2248   54.1098 O.2     1  ZINC000533037883   -0.5900
      2 C2         -9.4751   -0.1191   54.6155 C.2     1  ZINC000533037883    0.7100
      3 N3         -9.9418    0.0545   55.8679 N.am    1  ZINC000533037883   -0.7500
      4 C4        -10.4702   -1.0878   56.6177 C.3     1  ZINC000533037883    0.1400
      5 C5        -11.2286   -0.5840   57.8472 C.3     1  ZINC000533037883   -0.0500
      6 C6        -10.2776   -0.4652   59.0102 C.2     1  ZINC000533037883   -0.2300
      7 C7        -10.6216   -0.2504   60.3011 C.2     1  ZINC000533037883    0.0600
      8 N8         -9.4828   -0.2091   61.0290 N.pl3   1  ZINC000533037883   -0.3200
      9 C9         -9.3953   -0.0068   62.4135 C.ar    1  ZINC000533037883    0.1600
     10 C10        -8.1891   -0.2080   63.0710 C.ar    1  ZINC000533037883   -0.1400
     11 C11        -8.1060   -0.0079   64.4350 C.ar    1  ZINC000533037883   -0.0900
     12 C12        -9.2226    0.3921   65.1459 C.ar    1  ZINC000533037883   -0.1300
     13 C13       -10.4252    0.5933   64.4938 C.ar    1  ZINC000533037883   -0.0900
     14 C14       -10.5130    0.4008   63.1289 C.ar    1  ZINC000533037883   -0.1200
     15 N15        -8.4058   -0.4050   60.1548 N.2     1  ZINC000533037883   -0.2900
     16 C16        -8.8833   -0.5635   58.9466 C.2     1  ZINC000533037883    0.0700
     17 N17        -8.9890    0.9317   53.9257 N.am    1  ZINC000533037883   -0.6300
     18 C18        -8.9612    2.2727   54.5256 C.3     1  ZINC000533037883    0.1100
     19 C19        -7.5351    2.8244   54.4336 C.3     1  ZINC000533037883   -0.1400
     20 C20        -7.0673    2.7776   52.9772 C.3     1  ZINC000533037883   -0.1100
     21 C21        -7.0562    1.3271   52.4896 C.3     1  ZINC000533037883   -0.0900
     22 H22        -6.3959    0.7352   53.1232 H       1  ZINC000533037883    0.0800
     23 C23        -6.5564    1.2779   51.0443 C.3     1  ZINC000533037883   -0.1200
     24 H24        -7.2745    1.7463   50.3712 H       1  ZINC000533037883    0.0900
     25 C25        -5.1617    1.9494   50.9188 C.3     1  ZINC000533037883   -0.1500
     26 C26        -4.5766    1.1869   49.7034 C.3     1  ZINC000533037883    0.0500
     27 O27        -5.0558   -0.1603   49.8396 O.3     1  ZINC000533037883   -0.3900
     28 C28        -6.2658   -0.1756   50.6126 C.3     1  ZINC000533037883    0.0500
     29 C29        -8.4714    0.7572   52.5618 C.3     1  ZINC000533037883    0.1300
     30 H30        -9.9280    0.9359   56.2728 H       1  ZINC000533037883    0.4000
     31 H31       -11.1471   -1.6581   55.9817 H       1  ZINC000533037883    0.0700
     32 H32        -9.6459   -1.7263   56.9356 H       1  ZINC000533037883    0.0700
     33 H33       -11.6626    0.3924   57.6316 H       1  ZINC000533037883    0.0800
     34 H34       -12.0228   -1.2872   58.0977 H       1  ZINC000533037883    0.0800
     35 H35       -11.6255   -0.1325   60.6816 H       1  ZINC000533037883    0.1800
     36 H36        -7.3168   -0.5211   62.5165 H       1  ZINC000533037883    0.1300
     37 H37        -7.1679   -0.1642   64.9471 H       1  ZINC000533037883    0.1300
     38 H38        -9.1553    0.5473   66.2125 H       1  ZINC000533037883    0.1300
     39 H39       -11.2957    0.9057   65.0516 H       1  ZINC000533037883    0.1300
     40 H40       -11.4526    0.5584   62.6202 H       1  ZINC000533037883    0.1400
     41 H41        -8.3009   -0.7347   58.0533 H       1  ZINC000533037883    0.1900
     42 H42        -9.6427    2.9292   53.9847 H       1  ZINC000533037883    0.0700
     43 H43        -9.2626    2.2115   55.5714 H       1  ZINC000533037883    0.0800
     44 H44        -7.5203    3.8553   54.7874 H       1  ZINC000533037883    0.0800
     45 H45        -6.8701    2.2185   55.0490 H       1  ZINC000533037883    0.0700
     46 H46        -7.7469    3.3636   52.3584 H       1  ZINC000533037883    0.0700
     47 H47        -6.0619    3.1926   52.9052 H       1  ZINC000533037883    0.0700
     48 H48        -5.2560    3.0142   50.7062 H       1  ZINC000533037883    0.0800
     49 H49        -4.5626    1.7809   51.8137 H       1  ZINC000533037883    0.0800
     50 H50        -4.9376    1.6247   48.7727 H       1  ZINC000533037883    0.0600
     51 H51        -3.4871    1.2058   49.7337 H       1  ZINC000533037883    0.0900
     52 H52        -6.1328   -0.8011   51.4953 H       1  ZINC000533037883    0.0700
     53 H53        -7.0869   -0.5587   50.0067 H       1  ZINC000533037883    0.0700
     54 H54        -8.4515   -0.3032   52.3101 H       1  ZINC000533037883    0.1000
     55 H55        -9.1157    1.2890   51.8618 H       1  ZINC000533037883    0.0700
@<TRIPOS>BOND
     1     1     2    2
     2     2     3   am
     3     2    17   am
     4     3     4    1
     5     3    30    1
     6     4     5    1
     7     4    31    1
     8     4    32    1
     9     5     6    1
    10     5    33    1
    11     5    34    1
    12     6    16    1
    13     6     7    2
    14     7     8    1
    15     7    35    1
    16     8     9    1
    17     8    15    1
    18     9    14   ar
    19     9    10   ar
    20    10    11   ar
    21    10    36    1
    22    11    12   ar
    23    11    37    1
    24    12    13   ar
    25    12    38    1
    26    13    14   ar
    27    13    39    1
    28    14    40    1
    29    15    16    2
    30    16    41    1
    31    17    29    1
    32    17    18    1
    33    18    19    1
    34    18    42    1
    35    18    43    1
    36    19    20    1
    37    19    44    1
    38    19    45    1
    39    20    21    1
    40    20    46    1
    41    20    47    1
    42    21    22    1
    43    21    23    1
    44    21    29    1
    45    23    24    1
    46    23    28    1
    47    23    25    1
    48    25    26    1
    49    25    48    1
    50    25    49    1
    51    26    27    1
    52    26    50    1
    53    26    51    1
    54    27    28    1
    55    28    52    1
    56    28    53    1
    57    29    54    1
    58    29    55    1
@<TRIPOS>SUBSTRUCTURE
     1 ZINC000533037883        1 TEMP              0 ****  ****    0 ROOT


##########                                Name:    ZINC001039825450
##########                DOCK_Rotatable_Bonds:                   8
##########                         Heavy_Atoms:                  24
##########                    Molecular_Weight:             337.339
##########                DOCK_Rotatable_Bonds:                   8
##########                       Formal_Charge:           0.0100001
##########                     HBond_Acceptors:                  11
##########                        HBond_Donors:                   4
##########                         Heavy_Atoms:                  24
##########                          Grid_Score:          -32.494873
##########                     Grid_vdw_energy:          -31.776705
##########                      Grid_es_energy:           -0.718170
##########           Internal_energy_repulsive:            8.218414

@<TRIPOS>MOLECULE
ZINC001039825450
 43 45 1 0 0
SMALL
USER_CHARGES


@<TRIPOS>ATOM
      1 O1         -7.5535   -0.7776   51.6062 O.2     1  ZINC001039825450   -0.5100
      2 C2         -7.8414    0.3779   51.8361 C.2     1  ZINC001039825450    0.5000
      3 C3         -8.8823    0.7023   52.8765 C.3     1  ZINC001039825450    0.1300
      4 N4         -8.2216    1.0368   54.1406 N.pl3   1  ZINC001039825450   -0.1500
      5 N5         -7.0421    1.5399   54.2376 N.2     1  ZINC001039825450   -0.2800
      6 C6         -6.7614    1.7141   55.5093 C.2     1  ZINC001039825450   -0.0200
      7 C7         -7.8833    1.2704   56.2130 C.2     1  ZINC001039825450   -0.0200
      8 N8         -8.7443    0.8726   55.3040 N.2     1  ZINC001039825450   -0.2800
      9 N9         -7.2265    1.3721   51.1653 N.am    1  ZINC001039825450   -0.7300
     10 C10        -6.2147    1.0567   50.1539 C.3     1  ZINC001039825450    0.1000
     11 C11        -5.2484    2.2347   50.0146 C.3     1  ZINC001039825450    0.1100
     12 O12        -5.9592    3.4355   49.7063 O.3     1  ZINC001039825450   -0.5400
     13 C13        -4.4041    2.4077   51.3048 C.3     1  ZINC001039825450   -0.1600
     14 C14        -3.1305    3.0958   50.7531 C.3     1  ZINC001039825450    0.1000
     15 N15        -2.9024    2.4690   49.4384 N.am    1  ZINC001039825450   -0.6100
     16 C16        -1.7182    2.3922   48.7997 C.2     1  ZINC001039825450    0.5200
     17 O17        -1.6474    1.8521   47.7161 O.2     1  ZINC001039825450   -0.5100
     18 C18        -0.4817    2.9775   49.4320 C.3     1  ZINC001039825450    0.1100
     19 H19        -0.7353    3.8580   50.0224 H       1  ZINC001039825450    0.1200
     20 C20         0.5614    3.3310   48.3541 C.3     1  ZINC001039825450    0.1100
     21 N21         1.7178    2.4880   48.6930 N.am    1  ZINC001039825450   -0.7400
     22 C22         1.4273    1.7578   49.7777 C.2     1  ZINC001039825450    0.7100
     23 O23         2.2089    0.9712   50.2762 O.2     1  ZINC001039825450   -0.5800
     24 N24         0.1956    1.9740   50.2666 N.am    1  ZINC001039825450   -0.7200
     25 C25        -4.1808    1.9410   48.9396 C.3     1  ZINC001039825450    0.1200
     26 H26        -9.4780    1.5517   52.5420 H       1  ZINC001039825450    0.1400
     27 H27        -9.5310   -0.1612   53.0231 H       1  ZINC001039825450    0.1400
     28 H28        -5.8499    2.1174   55.9251 H       1  ZINC001039825450    0.2000
     29 H29        -8.0172    1.2605   57.2847 H       1  ZINC001039825450    0.2000
     30 H30        -7.4540    2.2963   51.3521 H       1  ZINC001039825450    0.4000
     31 H31        -5.6622    0.1676   50.4576 H       1  ZINC001039825450    0.0900
     32 H32        -6.7027    0.8720   49.1969 H       1  ZINC001039825450    0.0900
     33 H33        -5.4525    4.2439   49.8642 H       1  ZINC001039825450    0.3800
     34 H34        -4.9149    3.0493   52.0228 H       1  ZINC001039825450    0.0900
     35 H35        -4.1652    1.4410   51.7478 H       1  ZINC001039825450    0.0900
     36 H36        -3.2972    4.1669   50.6390 H       1  ZINC001039825450    0.0800
     37 H37        -2.2833    2.9110   51.4135 H       1  ZINC001039825450    0.0800
     38 H38         0.1850    3.0832   47.3616 H       1  ZINC001039825450    0.0900
     39 H39         0.8276    4.3865   48.4110 H       1  ZINC001039825450    0.1000
     40 H40         2.5574    2.4645   48.2080 H       1  ZINC001039825450    0.4400
     41 H41        -0.1853    1.5363   51.0440 H       1  ZINC001039825450    0.4400
     42 H42        -4.1008    0.8656   48.7807 H       1  ZINC001039825450    0.0900
     43 H43        -4.4479    2.4369   48.0066 H       1  ZINC001039825450    0.0900
@<TRIPOS>BOND
     1     1     2    2
     2     2     3    1
     3     2     9   am
     4     3     4    1
     5     3    26    1
     6     3    27    1
     7     4     8    1
     8     4     5    1
     9     5     6    2
    10     6     7    1
    11     6    28    1
    12     7     8    2
    13     7    29    1
    14     9    10    1
    15     9    30    1
    16    10    11    1
    17    10    31    1
    18    10    32    1
    19    11    25    1
    20    11    12    1
    21    11    13    1
    22    12    33    1
    23    13    14    1
    24    13    34    1
    25    13    35    1
    26    14    15    1
    27    14    36    1
    28    14    37    1
    29    15    16   am
    30    15    25    1
    31    16    17    2
    32    16    18    1
    33    18    19    1
    34    18    24    1
    35    18    20    1
    36    20    21    1
    37    20    38    1
    38    20    39    1
    39    21    22   am
    40    21    40    1
    41    22    23    2
    42    22    24   am
    43    24    41    1
    44    25    42    1
    45    25    43    1
@<TRIPOS>SUBSTRUCTURE
     1 ZINC001039825450        1 TEMP              0 ****  ****    0 ROOT


##########                                Name:    ZINC000281257088
##########                DOCK_Rotatable_Bonds:                   8
##########                         Heavy_Atoms:                  27
##########                    Molecular_Weight:             395.541
##########                DOCK_Rotatable_Bonds:                   8
##########                       Formal_Charge:          -0.0200005
##########                     HBond_Acceptors:                   7
##########                        HBond_Donors:                   1
##########                         Heavy_Atoms:                  27
##########                          Grid_Score:          -32.478477
##########                     Grid_vdw_energy:          -31.296761
##########                      Grid_es_energy:           -1.181715
##########           Internal_energy_repulsive:           23.298502

@<TRIPOS>MOLECULE
ZINC000281257088
 57 58 1 0 0
SMALL
USER_CHARGES


@<TRIPOS>ATOM
      1 C1         -1.5385    1.8228   46.4173 C.3     1  ZINC000281257088   -0.0700
      2 C2         -1.9881    2.1461   47.8188 C.2     1  ZINC000281257088    0.1000
      3 N3         -3.1936    1.9732   48.2969 N.2     1  ZINC000281257088   -0.3000
      4 N4         -3.1993    2.3947   49.6328 N.pl3   1  ZINC000281257088   -0.3700
      5 C5         -4.3503    2.3719   50.5389 C.3     1  ZINC000281257088    0.1500
      6 C6         -4.8512    0.9342   50.6909 C.3     1  ZINC000281257088   -0.6400
      7 S7         -6.5883    0.9512   51.2132 S.o2    1  ZINC000281257088    2.4300
      8 C8         -6.5741    2.2081   52.5211 C.3     1  ZINC000281257088   -0.6500
      9 O9         -7.3807    1.4290   50.1348 O.2     1  ZINC000281257088   -0.9300
     10 O10        -6.8978   -0.3066   51.7975 O.2     1  ZINC000281257088   -0.9300
     11 C11        -1.9573    2.8254   49.9377 C.2     1  ZINC000281257088    0.0900
     12 C12        -1.5072    3.3682   51.2695 C.3     1  ZINC000281257088   -0.1000
     13 C13        -1.1871    2.6773   48.8350 C.2     1  ZINC000281257088   -0.2300
     14 C14         0.2733    3.0307   48.7196 C.3     1  ZINC000281257088    0.1400
     15 N15         1.0889    1.8970   49.1752 N.3     1  ZINC000281257088   -0.6700
     16 C16         2.5211    2.1788   49.0101 C.3     1  ZINC000281257088    0.1400
     17 H17         2.7088    3.2342   49.2076 H       1  ZINC000281257088    0.0500
     18 C18         2.9386    1.8497   47.6000 C.ar    1  ZINC000281257088   -0.0800
     19 C19         3.9125    2.6051   46.9740 C.ar    1  ZINC000281257088   -0.0600
     20 C20         4.2964    2.3042   45.6808 C.ar    1  ZINC000281257088   -0.1600
     21 C21         3.7053    1.2455   45.0125 C.ar    1  ZINC000281257088    0.1000
     22 F22         4.0800    0.9501   43.7486 F       1  ZINC000281257088   -0.1400
     23 C23         2.7304    0.4892   45.6407 C.ar    1  ZINC000281257088   -0.1600
     24 C24         2.3516    0.7890   46.9355 C.ar    1  ZINC000281257088   -0.0900
     25 C25         3.3254    1.3250   49.9925 C.3     1  ZINC000281257088   -0.0600
     26 C26         2.8541   -0.1282   49.9098 C.3     1  ZINC000281257088   -0.1400
     27 C27         4.8113    1.4004   49.6357 C.3     1  ZINC000281257088   -0.1400
     28 C28         3.1151    1.8492   51.4145 C.3     1  ZINC000281257088   -0.1500
     29 H29        -1.1798    0.7943   46.3790 H       1  ZINC000281257088    0.0800
     30 H30        -2.3766    1.9412   45.7304 H       1  ZINC000281257088    0.0700
     31 H31        -0.7340    2.4993   46.1286 H       1  ZINC000281257088    0.0800
     32 H32        -4.0529    2.7580   51.5138 H       1  ZINC000281257088    0.1100
     33 H33        -5.1472    2.9929   50.1297 H       1  ZINC000281257088    0.1100
     34 H34        -4.7641    0.4162   49.7359 H       1  ZINC000281257088    0.1400
     35 H35        -4.2515    0.4178   51.4404 H       1  ZINC000281257088    0.1400
     36 H36        -6.2428    3.1601   52.1065 H       1  ZINC000281257088    0.1300
     37 H37        -7.5788    2.3193   52.9291 H       1  ZINC000281257088    0.1300
     38 H38        -5.8922    1.9001   53.3137 H       1  ZINC000281257088    0.1300
     39 H39        -1.1437    2.5501   51.8913 H       1  ZINC000281257088    0.0800
     40 H40        -0.7059    4.0910   51.1153 H       1  ZINC000281257088    0.0900
     41 H41        -2.3463    3.8563   51.7653 H       1  ZINC000281257088    0.0700
     42 H42         0.5118    3.2552   47.6799 H       1  ZINC000281257088    0.0800
     43 H43         0.4861    3.9029   49.3377 H       1  ZINC000281257088    0.0300
     44 H44         0.8751    1.6591   50.1321 H       1  ZINC000281257088    0.3400
     45 H45         4.3734    3.4309   47.4955 H       1  ZINC000281257088    0.1400
     46 H46         5.0568    2.8950   45.1918 H       1  ZINC000281257088    0.1300
     47 H47         2.2685   -0.3367   45.1202 H       1  ZINC000281257088    0.1300
     48 H48         1.5914    0.1990   47.4258 H       1  ZINC000281257088    0.1300
     49 H49         3.0039   -0.5016   48.8968 H       1  ZINC000281257088    0.0600
     50 H50         3.4271   -0.7364   50.6097 H       1  ZINC000281257088    0.0500
     51 H51         1.7955   -0.1818   50.1640 H       1  ZINC000281257088    0.0600
     52 H52         5.1471    2.4357   49.6947 H       1  ZINC000281257088    0.0500
     53 H53         5.3843    0.7922   50.3357 H       1  ZINC000281257088    0.0600
     54 H54         4.9611    1.0269   48.6227 H       1  ZINC000281257088    0.0600
     55 H55         2.0700    1.7236   51.6971 H       1  ZINC000281257088    0.0500
     56 H56         3.7478    1.2912   52.1047 H       1  ZINC000281257088    0.0600
     57 H57         3.3777    2.9064   51.4545 H       1  ZINC000281257088    0.0600
@<TRIPOS>BOND
     1     1     2    1
     2     1    29    1
     3     1    30    1
     4     1    31    1
     5     2    13    1
     6     2     3    2
     7     3     4    1
     8     4     5    1
     9     4    11    1
    10     5     6    1
    11     5    32    1
    12     5    33    1
    13     6     7    1
    14     6    34    1
    15     6    35    1
    16     7     8    1
    17     7     9    2
    18     7    10    2
    19     8    36    1
    20     8    37    1
    21     8    38    1
    22    11    12    1
    23    11    13    2
    24    12    39    1
    25    12    40    1
    26    12    41    1
    27    13    14    1
    28    14    15    1
    29    14    42    1
    30    14    43    1
    31    15    16    1
    32    15    44    1
    33    16    17    1
    34    16    18    1
    35    16    25    1
    36    18    24   ar
    37    18    19   ar
    38    19    20   ar
    39    19    45    1
    40    20    21   ar
    41    20    46    1
    42    21    22    1
    43    21    23   ar
    44    23    24   ar
    45    23    47    1
    46    24    48    1
    47    25    26    1
    48    25    27    1
    49    25    28    1
    50    26    49    1
    51    26    50    1
    52    26    51    1
    53    27    52    1
    54    27    53    1
    55    27    54    1
    56    28    55    1
    57    28    56    1
    58    28    57    1
@<TRIPOS>SUBSTRUCTURE
     1 ZINC000281257088        1 TEMP              0 ****  ****    0 ROOT


##########                                Name:    ZINC000000992968
##########                DOCK_Rotatable_Bonds:                   8
##########                         Heavy_Atoms:                  27
##########                    Molecular_Weight:             384.772
##########                DOCK_Rotatable_Bonds:                   8
##########                       Formal_Charge:           0.0199999
##########                     HBond_Acceptors:                   7
##########                        HBond_Donors:                   0
##########                         Heavy_Atoms:                  27
##########                          Grid_Score:          -32.472641
##########                     Grid_vdw_energy:          -31.903769
##########                      Grid_es_energy:           -0.568872
##########           Internal_energy_repulsive:            9.662322

@<TRIPOS>MOLECULE
ZINC000000992968
 40 42 1 0 0
SMALL
USER_CHARGES


@<TRIPOS>ATOM
      1 O1        -12.2150   -2.4768   59.8317 O.2     1  ZINC000000992968   -0.4600
      2 C2        -11.3734   -2.2294   58.9892 C.2     1  ZINC000000992968    0.5600
      3 O3        -11.5788   -2.5879   57.7046 O.3     1  ZINC000000992968   -0.2900
      4 C4        -11.2985   -1.6789   56.7369 C.ar    1  ZINC000000992968    0.1200
      5 C5        -10.2476   -1.9071   55.8552 C.ar    1  ZINC000000992968   -0.1300
      6 C6         -9.9589   -0.9883   54.8724 C.ar    1  ZINC000000992968   -0.0400
      7 C7        -10.7257    0.1780   54.7606 C.ar    1  ZINC000000992968   -0.1600
      8 C8        -10.4223    1.1620   53.7130 C.2     1  ZINC000000992968    0.4000
      9 O9        -10.7284    2.3255   53.8669 O.2     1  ZINC000000992968   -0.4200
     10 C10        -9.7307    0.7258   52.4471 C.3     1  ZINC000000992968    0.0200
     11 O11        -8.2989    0.9238   52.5849 O.3     1  ZINC000000992968   -0.3300
     12 C12        -7.5033    0.2509   51.7309 C.2     1  ZINC000000992968    0.5100
     13 O13        -7.8048   -0.8711   51.3760 O.2     1  ZINC000000992968   -0.5000
     14 C14        -6.2651    0.8773   51.2262 C.ar    1  ZINC000000992968   -0.1300
     15 C15        -5.7285    1.9921   51.8744 C.ar    1  ZINC000000992968   -0.0500
     16 C16        -4.5718    2.5721   51.3985 C.ar    1  ZINC000000992968   -0.1200
     17 C17        -3.9421    2.0518   50.2797 C.ar    1  ZINC000000992968    0.0000
     18 Cl18       -2.4864    2.7882   49.6863 Cl      1  ZINC000000992968   -0.0500
     19 C19        -4.4691    0.9461   49.6327 C.ar    1  ZINC000000992968   -0.1200
     20 C20        -5.6224    0.3538   50.1020 C.ar    1  ZINC000000992968   -0.0400
     21 C21       -11.7831    0.4028   55.6506 C.ar    1  ZINC000000992968   -0.0600
     22 C22       -12.0668   -0.5250   56.6266 C.ar    1  ZINC000000992968   -0.1200
     23 C23       -10.1397   -1.5371   59.3678 C.2     1  ZINC000000992968   -0.0700
     24 C24        -9.7996   -1.1335   60.6284 C.2     1  ZINC000000992968   -0.0900
     25 C25        -8.5430   -0.5175   60.5293 C.2     1  ZINC000000992968   -0.2300
     26 C26        -8.1749   -0.5708   59.2297 C.2     1  ZINC000000992968    0.0200
     27 O27        -9.1367   -1.1908   58.5343 O.3     1  ZINC000000992968   -0.1500
     28 H28        -9.6567   -2.8070   55.9423 H       1  ZINC000000992968    0.1400
     29 H29        -9.1421   -1.1662   54.1886 H       1  ZINC000000992968    0.1500
     30 H30        -9.9358   -0.3292   52.2660 H       1  ZINC000000992968    0.1100
     31 H31       -10.1002    1.3169   51.6091 H       1  ZINC000000992968    0.1100
     32 H32        -6.2190    2.3990   52.7463 H       1  ZINC000000992968    0.1500
     33 H33        -4.1559    3.4341   51.8988 H       1  ZINC000000992968    0.1500
     34 H34        -3.9735    0.5449   48.7611 H       1  ZINC000000992968    0.1500
     35 H35        -6.0321   -0.5083   49.5969 H       1  ZINC000000992968    0.1500
     36 H36       -12.3774    1.3009   55.5688 H       1  ZINC000000992968    0.1400
     37 H37       -12.8823   -0.3527   57.3134 H       1  ZINC000000992968    0.1400
     38 H38       -10.3847   -1.2636   61.5268 H       1  ZINC000000992968    0.1700
     39 H39        -7.9762   -0.0825   61.3392 H       1  ZINC000000992968    0.1700
     40 H40        -7.2547   -0.1809   58.8203 H       1  ZINC000000992968    0.2200
@<TRIPOS>BOND
     1     1     2    2
     2     2     3    1
     3     2    23    1
     4     3     4    1
     5     4    22   ar
     6     4     5   ar
     7     5     6   ar
     8     5    28    1
     9     6     7   ar
    10     6    29    1
    11     7     8    1
    12     7    21   ar
    13     8     9    2
    14     8    10    1
    15    10    11    1
    16    10    30    1
    17    10    31    1
    18    11    12    1
    19    12    13    2
    20    12    14    1
    21    14    20   ar
    22    14    15   ar
    23    15    16   ar
    24    15    32    1
    25    16    17   ar
    26    16    33    1
    27    17    18    1
    28    17    19   ar
    29    19    20   ar
    30    19    34    1
    31    20    35    1
    32    21    22   ar
    33    21    36    1
    34    22    37    1
    35    23    27    1
    36    23    24    2
    37    24    25    1
    38    24    38    1
    39    25    26    2
    40    25    39    1
    41    26    27    1
    42    26    40    1
@<TRIPOS>SUBSTRUCTURE
     1 ZINC000000992968        1 TEMP              0 ****  ****    0 ROOT


##########                                Name:    ZINC001087843226
##########                DOCK_Rotatable_Bonds:                   6
##########                         Heavy_Atoms:                  27
##########                    Molecular_Weight:             368.479
##########                DOCK_Rotatable_Bonds:                   6
##########                       Formal_Charge:        -4.47035e-07
##########                     HBond_Acceptors:                   6
##########                        HBond_Donors:                   1
##########                         Heavy_Atoms:                  27
##########                          Grid_Score:          -32.456356
##########                     Grid_vdw_energy:          -32.167267
##########                      Grid_es_energy:           -0.289087
##########           Internal_energy_repulsive:           31.887869

@<TRIPOS>MOLECULE
ZINC001087843226
 55 58 1 0 0
SMALL
USER_CHARGES


@<TRIPOS>ATOM
      1 C1         -7.9599    4.3356   52.2662 C.3     1  ZINC001087843226   -0.1500
      2 C2         -6.7229    3.8930   51.4821 C.3     1  ZINC001087843226   -0.1500
      3 C3         -7.0074    2.5576   50.7918 C.3     1  ZINC001087843226    0.0700
      4 H4         -7.8692    2.6576   50.1320 H       1  ZINC001087843226    0.1000
      5 C5         -7.2797    1.4674   51.8496 C.3     1  ZINC001087843226    0.1300
      6 H6         -6.8289    1.7362   52.8049 H       1  ZINC001087843226    0.1000
      7 N7         -8.7192    1.2427   52.0032 N.am    1  ZINC001087843226   -0.7200
      8 C8         -9.1826    0.5348   53.0522 C.2     1  ZINC001087843226    0.5600
      9 O9         -8.4061    0.0814   53.8701 O.2     1  ZINC001087843226   -0.5300
     10 C10       -10.6355    0.3096   53.2082 C.ar    1  ZINC001087843226   -0.1400
     11 C11       -11.5244    0.7982   52.2512 C.ar    1  ZINC001087843226   -0.0800
     12 C12       -12.8791    0.5848   52.4023 C.ar    1  ZINC001087843226   -0.1300
     13 C13       -13.3530   -0.1111   53.4985 C.ar    1  ZINC001087843226   -0.0400
     14 C14       -14.8343   -0.3397   53.6554 C.3     1  ZINC001087843226   -0.1200
     15 C15       -12.4764   -0.6008   54.4547 C.ar    1  ZINC001087843226   -0.1100
     16 C16       -11.1195   -0.3984   54.3124 C.ar    1  ZINC001087843226   -0.0300
     17 C17       -10.3822   -1.0227   55.4775 C.3     1  ZINC001087843226   -0.0800
     18 C18       -11.4572   -1.2458   56.5624 C.3     1  ZINC001087843226   -0.1200
     19 C19       -12.7475   -1.3811   55.7235 C.3     1  ZINC001087843226   -0.0800
     20 C20        -6.5865    0.2163   51.2485 C.3     1  ZINC001087843226   -0.1400
     21 C21        -5.3460    0.8440   50.5653 C.3     1  ZINC001087843226    0.0400
     22 N22        -5.8280    2.1329   50.0155 N.3     1  ZINC001087843226   -0.5100
     23 C23        -4.7720    3.1530   50.0621 C.3     1  ZINC001087843226    0.1100
     24 C24        -3.5982    2.6991   49.2331 C.2     1  ZINC001087843226    0.0800
     25 N25        -3.6724    1.9557   48.1697 N.2     1  ZINC001087843226   -0.2700
     26 O26        -2.3499    1.7617   47.6942 O.3     1  ZINC001087843226    0.0300
     27 N27        -1.4973    2.4645   48.5842 N.2     1  ZINC001087843226   -0.2800
     28 C28        -2.2498    3.0196   49.4866 C.2     1  ZINC001087843226    0.0900
     29 C29        -1.7562    3.8654   50.6321 C.3     1  ZINC001087843226   -0.0900
     30 H30        -7.7349    5.2512   52.8132 H       1  ZINC001087843226    0.0600
     31 H31        -8.7823    4.5183   51.5746 H       1  ZINC001087843226    0.0600
     32 H32        -8.2437    3.5527   52.9695 H       1  ZINC001087843226    0.0600
     33 H33        -6.4798    4.6454   50.7318 H       1  ZINC001087843226    0.0800
     34 H34        -5.8818    3.7767   52.1657 H       1  ZINC001087843226    0.0700
     35 H35        -9.3388    1.6035   51.3498 H       1  ZINC001087843226    0.4000
     36 H36       -11.1537    1.3421   51.3949 H       1  ZINC001087843226    0.1300
     37 H37       -13.5702    0.9623   51.6632 H       1  ZINC001087843226    0.1300
     38 H38       -15.1110   -1.2751   53.1691 H       1  ZINC001087843226    0.0800
     39 H39       -15.0833   -0.3935   54.7152 H       1  ZINC001087843226    0.0700
     40 H40       -15.3798    0.4842   53.1953 H       1  ZINC001087843226    0.0700
     41 H41        -9.9416   -1.9744   55.1802 H       1  ZINC001087843226    0.0800
     42 H42        -9.6103   -0.3455   55.8433 H       1  ZINC001087843226    0.0900
     43 H43       -11.2615   -2.1621   57.1193 H       1  ZINC001087843226    0.0800
     44 H44       -11.5150   -0.3883   57.2328 H       1  ZINC001087843226    0.0700
     45 H45       -13.5929   -0.9467   56.2571 H       1  ZINC001087843226    0.0800
     46 H46       -12.9417   -2.4290   55.4947 H       1  ZINC001087843226    0.0800
     47 H47        -6.2898   -0.4802   52.0327 H       1  ZINC001087843226    0.0800
     48 H48        -7.2296   -0.2727   50.5169 H       1  ZINC001087843226    0.0800
     49 H49        -4.5554    1.0137   51.2963 H       1  ZINC001087843226    0.0600
     50 H50        -4.9890    0.2000   49.7616 H       1  ZINC001087843226    0.0800
     51 H51        -5.1562    4.0922   49.6643 H       1  ZINC001087843226    0.1200
     52 H52        -4.4531    3.2989   51.0942 H       1  ZINC001087843226    0.0700
     53 H53        -1.8081    4.9183   50.3550 H       1  ZINC001087843226    0.1000
     54 H54        -2.3795    3.6892   51.5088 H       1  ZINC001087843226    0.0900
     55 H55        -0.7240    3.6004   50.8609 H       1  ZINC001087843226    0.0900
@<TRIPOS>BOND
     1     1     2    1
     2     1    30    1
     3     1    31    1
     4     1    32    1
     5     2     3    1
     6     2    33    1
     7     2    34    1
     8     3     4    1
     9     3    22    1
    10     3     5    1
    11     5     6    1
    12     5     7    1
    13     5    20    1
    14     7     8   am
    15     7    35    1
    16     8     9    2
    17     8    10    1
    18    10    16   ar
    19    10    11   ar
    20    11    12   ar
    21    11    36    1
    22    12    13   ar
    23    12    37    1
    24    13    14    1
    25    13    15   ar
    26    14    38    1
    27    14    39    1
    28    14    40    1
    29    15    19    1
    30    15    16   ar
    31    16    17    1
    32    17    18    1
    33    17    41    1
    34    17    42    1
    35    18    19    1
    36    18    43    1
    37    18    44    1
    38    19    45    1
    39    19    46    1
    40    20    21    1
    41    20    47    1
    42    20    48    1
    43    21    22    1
    44    21    49    1
    45    21    50    1
    46    22    23    1
    47    23    24    1
    48    23    51    1
    49    23    52    1
    50    24    28    1
    51    24    25    2
    52    25    26    1
    53    26    27    1
    54    27    28    2
    55    28    29    1
    56    29    53    1
    57    29    54    1
    58    29    55    1
@<TRIPOS>SUBSTRUCTURE
     1 ZINC001087843226        1 TEMP              0 ****  ****    0 ROOT


##########                                Name:    ZINC000471198073
##########                DOCK_Rotatable_Bonds:                  12
##########                         Heavy_Atoms:                  30
##########                    Molecular_Weight:             409.528
##########                DOCK_Rotatable_Bonds:                  12
##########                       Formal_Charge:          -0.0399998
##########                     HBond_Acceptors:                   6
##########                        HBond_Donors:                   3
##########                         Heavy_Atoms:                  30
##########                          Grid_Score:          -32.441925
##########                     Grid_vdw_energy:          -32.421566
##########                      Grid_es_energy:           -0.020360
##########           Internal_energy_repulsive:           23.850653

@<TRIPOS>MOLECULE
ZINC000471198073
 61 62 1 0 0
SMALL
USER_CHARGES


@<TRIPOS>ATOM
      1 C1         -3.7739    3.0040   49.4953 C.3     1  ZINC000471198073   -0.1400
      2 C2         -5.1793    2.4325   49.6931 C.3     1  ZINC000471198073   -0.1100
      3 C3         -5.1085    0.9045   49.7260 C.3     1  ZINC000471198073   -0.1500
      4 C4         -5.7483    2.9370   50.9942 C.2     1  ZINC000471198073    0.5200
      5 O5         -6.5244    3.8690   50.9958 O.2     1  ZINC000471198073   -0.5200
      6 N6         -5.3947    2.3525   52.1560 N.am    1  ZINC000471198073   -0.6700
      7 C7         -5.9230    2.8210   53.3641 C.ar    1  ZINC000471198073    0.1600
      8 C8         -5.6527    4.1168   53.7851 C.ar    1  ZINC000471198073   -0.1500
      9 C9         -6.1742    4.5807   54.9778 C.ar    1  ZINC000471198073   -0.0800
     10 C10        -6.9658    3.7581   55.7552 C.ar    1  ZINC000471198073   -0.1300
     11 C11        -7.2398    2.4601   55.3400 C.ar    1  ZINC000471198073    0.1500
     12 N12        -8.0402    1.6281   56.1271 N.am    1  ZINC000471198073   -0.6400
     13 C13        -7.6394    1.2838   57.3670 C.2     1  ZINC000471198073    0.5100
     14 O14        -6.5833    1.6965   57.7999 O.2     1  ZINC000471198073   -0.5000
     15 C15        -8.4950    0.3945   58.2083 C.2     1  ZINC000471198073    0.5100
     16 O16        -8.2834    0.2987   59.3995 O.2     1  ZINC000471198073   -0.5100
     17 N17        -9.5020   -0.3017   57.6446 N.am    1  ZINC000471198073   -0.7000
     18 C18       -10.3401   -1.1753   58.4694 C.3     1  ZINC000471198073    0.1200
     19 C19       -11.5735   -1.6016   57.6707 C.3     1  ZINC000471198073   -0.0900
     20 H20       -12.2218   -0.7391   57.5157 H       1  ZINC000471198073    0.0800
     21 C21       -11.1354   -2.1605   56.3155 C.3     1  ZINC000471198073   -0.0800
     22 C22       -11.4014   -1.1381   55.2408 C.ar    1  ZINC000471198073   -0.0800
     23 C23       -10.3525   -0.6222   54.5029 C.ar    1  ZINC000471198073   -0.1200
     24 C24       -10.5963    0.3156   53.5171 C.ar    1  ZINC000471198073   -0.1200
     25 C25       -11.8892    0.7373   53.2689 C.ar    1  ZINC000471198073   -0.1200
     26 C26       -12.9382    0.2207   54.0062 C.ar    1  ZINC000471198073   -0.1200
     27 C27       -12.6948   -0.7204   54.9890 C.ar    1  ZINC000471198073   -0.1200
     28 C28       -12.3349   -2.6793   58.4449 C.3     1  ZINC000471198073   -0.1000
     29 C29       -12.3899   -2.3004   59.9262 C.3     1  ZINC000471198073   -0.1600
     30 C30       -13.7580   -2.7933   57.8946 C.3     1  ZINC000471198073   -0.1700
     31 C31        -6.7220    1.9934   54.1399 C.ar    1  ZINC000471198073   -0.1400
     32 H32        -3.3624    2.6391   48.5543 H       1  ZINC000471198073    0.0700
     33 H33        -3.8244    4.0927   49.4719 H       1  ZINC000471198073    0.0600
     34 H34        -3.1338    2.6876   50.3188 H       1  ZINC000471198073    0.0600
     35 H35        -5.8194    2.7489   48.8696 H       1  ZINC000471198073    0.1000
     36 H36        -4.4683    0.5880   50.5494 H       1  ZINC000471198073    0.0600
     37 H37        -6.1097    0.4972   49.8669 H       1  ZINC000471198073    0.0600
     38 H38        -4.6969    0.5395   48.7849 H       1  ZINC000471198073    0.0700
     39 H39        -4.7740    1.6073   52.1547 H       1  ZINC000471198073    0.4100
     40 H40        -5.0338    4.7626   53.1797 H       1  ZINC000471198073    0.1300
     41 H41        -5.9622    5.5885   55.3029 H       1  ZINC000471198073    0.1300
     42 H42        -7.3719    4.1235   56.6869 H       1  ZINC000471198073    0.1400
     43 H43        -8.8843    1.2983   55.7811 H       1  ZINC000471198073    0.4200
     44 H44        -9.6718   -0.2243   56.6927 H       1  ZINC000471198073    0.4200
     45 H45        -9.7706   -2.0590   58.7575 H       1  ZINC000471198073    0.0700
     46 H46       -10.6545   -0.6382   59.3642 H       1  ZINC000471198073    0.0800
     47 H47       -10.0700   -2.3891   56.3440 H       1  ZINC000471198073    0.0800
     48 H48       -11.6964   -3.0697   56.0991 H       1  ZINC000471198073    0.0800
     49 H49        -9.3423   -0.9516   54.6968 H       1  ZINC000471198073    0.1200
     50 H50        -9.7767    0.7193   52.9412 H       1  ZINC000471198073    0.1200
     51 H51       -12.0797    1.4705   52.4992 H       1  ZINC000471198073    0.1200
     52 H52       -13.9483    0.5502   53.8125 H       1  ZINC000471198073    0.1200
     53 H53       -13.5144   -1.1241   55.5651 H       1  ZINC000471198073    0.1200
     54 H54       -11.8245   -3.6360   58.3333 H       1  ZINC000471198073    0.0800
     55 H55       -12.9847   -1.3952   60.0479 H       1  ZINC000471198073    0.0600
     56 H56       -12.8450   -3.1131   60.4924 H       1  ZINC000471198073    0.0600
     57 H57       -11.3791   -2.1231   60.2937 H       1  ZINC000471198073    0.0600
     58 H58       -13.7195   -2.9373   56.8148 H       1  ZINC000471198073    0.0600
     59 H59       -14.2593   -3.6437   58.3568 H       1  ZINC000471198073    0.0600
     60 H60       -14.3089   -1.8803   58.1200 H       1  ZINC000471198073    0.0700
     61 H61        -6.9334    0.9854   53.8149 H       1  ZINC000471198073    0.1400
@<TRIPOS>BOND
     1     1     2    1
     2     1    32    1
     3     1    33    1
     4     1    34    1
     5     2     3    1
     6     2     4    1
     7     2    35    1
     8     3    36    1
     9     3    37    1
    10     3    38    1
    11     4     5    2
    12     4     6   am
    13     6     7    1
    14     6    39    1
    15     7    31   ar
    16     7     8   ar
    17     8     9   ar
    18     8    40    1
    19     9    10   ar
    20     9    41    1
    21    10    11   ar
    22    10    42    1
    23    11    12    1
    24    11    31   ar
    25    12    13   am
    26    12    43    1
    27    13    14    2
    28    13    15    1
    29    15    16    2
    30    15    17   am
    31    17    18    1
    32    17    44    1
    33    18    19    1
    34    18    45    1
    35    18    46    1
    36    19    20    1
    37    19    21    1
    38    19    28    1
    39    21    22    1
    40    21    47    1
    41    21    48    1
    42    22    27   ar
    43    22    23   ar
    44    23    24   ar
    45    23    49    1
    46    24    25   ar
    47    24    50    1
    48    25    26   ar
    49    25    51    1
    50    26    27   ar
    51    26    52    1
    52    27    53    1
    53    28    29    1
    54    28    30    1
    55    28    54    1
    56    29    55    1
    57    29    56    1
    58    29    57    1
    59    30    58    1
    60    30    59    1
    61    30    60    1
    62    31    61    1
@<TRIPOS>SUBSTRUCTURE
     1 ZINC000471198073        1 TEMP              0 ****  ****    0 ROOT


##########                                Name:    ZINC001067316277
##########                DOCK_Rotatable_Bonds:                   5
##########                         Heavy_Atoms:                  24
##########                    Molecular_Weight:             345.469
##########                DOCK_Rotatable_Bonds:                   5
##########                       Formal_Charge:          -0.0200007
##########                     HBond_Acceptors:                   7
##########                        HBond_Donors:                   2
##########                         Heavy_Atoms:                  24
##########                          Grid_Score:          -32.440224
##########                     Grid_vdw_energy:          -32.057613
##########                      Grid_es_energy:           -0.382612
##########           Internal_energy_repulsive:            7.996946

@<TRIPOS>MOLECULE
ZINC001067316277
 47 49 1 0 0
SMALL
USER_CHARGES


@<TRIPOS>ATOM
      1 C1         -0.7476    3.2940   51.9404 C.3     1  ZINC001067316277   -0.1400
      2 S2          0.2296    3.1459   50.4241 S.3     1  ZINC001067316277   -0.0400
      3 C3         -1.0307    2.6560   49.2944 C.ar    1  ZINC001067316277    0.1800
      4 C4         -0.7191    2.3806   47.9606 C.ar    1  ZINC001067316277   -0.2400
      5 C5         -1.7391    2.0001   47.1111 C.ar    1  ZINC001067316277    0.1900
      6 N6         -2.9744    1.9078   47.5815 N.ar    1  ZINC001067316277   -0.5600
      7 C7         -3.2417    2.1749   48.8516 C.ar    1  ZINC001067316277    0.5100
      8 N8         -4.5451    2.0666   49.3041 N.3     1  ZINC001067316277   -0.4600
      9 C9         -4.8162    0.7146   49.8092 C.3     1  ZINC001067316277    0.0700
     10 C10        -6.2995    0.5892   50.1642 C.3     1  ZINC001067316277   -0.1300
     11 C11        -6.6549    1.6322   51.2273 C.3     1  ZINC001067316277    0.1600
     12 H12        -6.0800    1.4394   52.1331 H       1  ZINC001067316277    0.0900
     13 N13        -8.0862    1.5547   51.5300 N.am    1  ZINC001067316277   -0.7200
     14 C14        -8.5315    0.6925   52.4653 C.2     1  ZINC001067316277    0.5900
     15 O15        -7.7448   -0.0227   53.0573 O.2     1  ZINC001067316277   -0.5300
     16 C16        -9.9643    0.6162   52.7696 C.2     1  ZINC001067316277   -0.0600
     17 C17       -10.9648    1.3525   52.1715 C.2     1  ZINC001067316277   -0.1000
     18 C18       -12.1709    0.9622   52.7616 C.2     1  ZINC001067316277   -0.2100
     19 C19       -11.8923    0.0153   53.6893 C.2     1  ZINC001067316277    0.0300
     20 N20       -10.5556   -0.2079   53.7002 N.pl3   1  ZINC001067316277   -0.5400
     21 C21        -6.3179    3.0277   50.6947 C.3     1  ZINC001067316277   -0.0700
     22 C22        -7.1650    3.3193   49.4544 C.3     1  ZINC001067316277   -0.1400
     23 C23        -6.6149    4.0715   51.7732 C.3     1  ZINC001067316277   -0.1400
     24 C24        -4.8341    3.0824   50.3243 C.3     1  ZINC001067316277    0.0800
     25 N25        -2.2918    2.5375   49.7001 N.ar    1  ZINC001067316277   -0.5400
     26 H26        -1.5290    4.0404   51.7975 H       1  ZINC001067316277    0.0900
     27 H27        -1.2029    2.3317   52.1747 H       1  ZINC001067316277    0.0900
     28 H28        -0.0996    3.5991   52.7621 H       1  ZINC001067316277    0.1000
     29 H29         0.2963    2.4639   47.6020 H       1  ZINC001067316277    0.1500
     30 H30        -1.5323    1.7804   46.0741 H       1  ZINC001067316277    0.1700
     31 H31        -4.5632   -0.0172   49.0420 H       1  ZINC001067316277    0.1000
     32 H32        -4.2131    0.5315   50.6985 H       1  ZINC001067316277    0.0500
     33 H33        -6.9027    0.7585   49.2722 H       1  ZINC001067316277    0.0800
     34 H34        -6.4972   -0.4095   50.5537 H       1  ZINC001067316277    0.0800
     35 H35        -8.7134    2.1240   51.0572 H       1  ZINC001067316277    0.3900
     36 H36       -10.8404    2.0916   51.3940 H       1  ZINC001067316277    0.1500
     37 H37       -13.1506    1.3475   52.5208 H       1  ZINC001067316277    0.1500
     38 H38       -12.6176   -0.4831   54.3156 H       1  ZINC001067316277    0.1700
     39 H39       -10.0921   -0.8392   54.2725 H       1  ZINC001067316277    0.4100
     40 H40        -8.2219    3.2767   49.7180 H       1  ZINC001067316277    0.0500
     41 H41        -6.9248    4.3127   49.0757 H       1  ZINC001067316277    0.0600
     42 H42        -6.9521    2.5762   48.6860 H       1  ZINC001067316277    0.0700
     43 H43        -6.0102    3.8641   52.6559 H       1  ZINC001067316277    0.0600
     44 H44        -6.3750    5.0646   51.3934 H       1  ZINC001067316277    0.0600
     45 H45        -7.6714    4.0294   52.0383 H       1  ZINC001067316277    0.0600
     46 H46        -4.2310    2.8882   51.2112 H       1  ZINC001067316277    0.0600
     47 H47        -4.5941    4.0704   49.9313 H       1  ZINC001067316277    0.1000
@<TRIPOS>BOND
     1     1     2    1
     2     1    26    1
     3     1    27    1
     4     1    28    1
     5     2     3    1
     6     3    25   ar
     7     3     4   ar
     8     4     5   ar
     9     4    29    1
    10     5     6   ar
    11     5    30    1
    12     6     7   ar
    13     7     8    1
    14     7    25   ar
    15     8    24    1
    16     8     9    1
    17     9    10    1
    18     9    31    1
    19     9    32    1
    20    10    11    1
    21    10    33    1
    22    10    34    1
    23    11    12    1
    24    11    13    1
    25    11    21    1
    26    13    14   am
    27    13    35    1
    28    14    15    2
    29    14    16    1
    30    16    20    1
    31    16    17    2
    32    17    18    1
    33    17    36    1
    34    18    19    2
    35    18    37    1
    36    19    20    1
    37    19    38    1
    38    20    39    1
    39    21    22    1
    40    21    23    1
    41    21    24    1
    42    22    40    1
    43    22    41    1
    44    22    42    1
    45    23    43    1
    46    23    44    1
    47    23    45    1
    48    24    46    1
    49    24    47    1
@<TRIPOS>SUBSTRUCTURE
     1 ZINC001067316277        1 TEMP              0 ****  ****    0 ROOT


##########                                Name:    ZINC001065334255
##########                DOCK_Rotatable_Bonds:                   7
##########                         Heavy_Atoms:                  23
##########                    Molecular_Weight:             346.448
##########                DOCK_Rotatable_Bonds:                   7
##########                       Formal_Charge:        -5.81145e-07
##########                     HBond_Acceptors:                   8
##########                        HBond_Donors:                   1
##########                         Heavy_Atoms:                  23
##########                          Grid_Score:          -32.406654
##########                     Grid_vdw_energy:          -29.964087
##########                      Grid_es_energy:           -2.442570
##########           Internal_energy_repulsive:           21.122965

@<TRIPOS>MOLECULE
ZINC001065334255
 49 50 1 0 0
SMALL
USER_CHARGES


@<TRIPOS>ATOM
      1 C1          0.5790    4.5826   57.2856 C.3     1  ZINC001065334255   -0.1500
      2 C2          0.3366    3.0953   57.0206 C.3     1  ZINC001065334255   -0.0800
      3 C3          0.2202    2.3523   58.3530 C.3     1  ZINC001065334255   -0.1500
      4 C4         -0.9595    2.9235   56.2259 C.3     1  ZINC001065334255   -0.1400
      5 C5         -0.8152    3.5856   54.8799 C.2     1  ZINC001065334255    0.5100
      6 O6          0.2884    3.8233   54.4363 O.2     1  ZINC001065334255   -0.5300
      7 N7         -1.9122    3.9138   54.1691 N.am    1  ZINC001065334255   -0.7300
      8 C8         -1.7717    4.5559   52.8599 C.3     1  ZINC001065334255    0.1300
      9 C9         -1.8181    3.4911   51.7621 C.3     1  ZINC001065334255    0.0700
     10 H10        -1.4929    2.5338   52.1695 H       1  ZINC001065334255    0.0700
     11 C11        -3.2514    3.3623   51.2340 C.3     1  ZINC001065334255    0.0800
     12 N12        -3.2355    2.4754   50.0599 N.am    1  ZINC001065334255   -0.6100
     13 C13        -4.0868    1.4349   49.9649 C.2     1  ZINC001065334255    0.5400
     14 O14        -4.0586    0.7154   48.9889 O.2     1  ZINC001065334255   -0.5200
     15 C15        -5.0739    1.1654   51.0713 C.3     1  ZINC001065334255   -0.1100
     16 H16        -4.5557    1.1125   52.0288 H       1  ZINC001065334255    0.1200
     17 C17        -5.8200   -0.1532   50.8024 C.3     1  ZINC001065334255   -0.1000
     18 C18        -7.0386   -0.2325   51.7433 C.3     1  ZINC001065334255   -0.5900
     19 S19        -7.4980    1.5067   52.0750 S.o2    1  ZINC001065334255    2.3900
     20 O20        -8.7446    1.7910   51.4548 O.2     1  ZINC001065334255   -0.9300
     21 O21        -7.3141    1.7872   53.4558 O.2     1  ZINC001065334255   -0.9300
     22 C22        -6.1471    2.2837   51.1094 C.3     1  ZINC001065334255   -0.5900
     23 C23        -2.2630    2.7583   48.9925 C.3     1  ZINC001065334255    0.0600
     24 C24        -0.8778    2.9164   49.6298 C.3     1  ZINC001065334255    0.0500
     25 O25        -0.9528    3.8725   50.6900 O.3     1  ZINC001065334255   -0.3700
     26 H26         1.5023    4.7050   57.8518 H       1  ZINC001065334255    0.0600
     27 H27         0.6620    5.1120   56.3364 H       1  ZINC001065334255    0.0500
     28 H28        -0.2546    4.9903   57.8574 H       1  ZINC001065334255    0.0600
     29 H29         1.1702    2.6876   56.4488 H       1  ZINC001065334255    0.0800
     30 H30        -0.6134    2.7600   58.9248 H       1  ZINC001065334255    0.0500
     31 H31         0.0475    1.2928   58.1642 H       1  ZINC001065334255    0.0700
     32 H32         1.1436    2.4747   58.9191 H       1  ZINC001065334255    0.0500
     33 H33        -1.1634    1.8616   56.0885 H       1  ZINC001065334255    0.0900
     34 H34        -1.7836    3.3840   56.7709 H       1  ZINC001065334255    0.0900
     35 H35        -2.7948    3.7248   54.5246 H       1  ZINC001065334255    0.4000
     36 H36        -2.5868    5.2645   52.7134 H       1  ZINC001065334255    0.0900
     37 H37        -0.8190    5.0834   52.8143 H       1  ZINC001065334255    0.0800
     38 H38        -3.8908    2.9364   52.0072 H       1  ZINC001065334255    0.1100
     39 H39        -3.6264    4.3447   50.9468 H       1  ZINC001065334255    0.0900
     40 H40        -6.1552   -0.1797   49.7655 H       1  ZINC001065334255    0.1000
     41 H41        -5.1551   -0.9958   50.9920 H       1  ZINC001065334255    0.1000
     42 H42        -7.8611   -0.7546   51.2542 H       1  ZINC001065334255    0.1500
     43 H43        -6.7682   -0.7362   52.6713 H       1  ZINC001065334255    0.1400
     44 H44        -5.7670    3.1691   51.6193 H       1  ZINC001065334255    0.1400
     45 H45        -6.4837    2.5305   50.1025 H       1  ZINC001065334255    0.1500
     46 H46        -2.2478    1.9323   48.2814 H       1  ZINC001065334255    0.1000
     47 H47        -2.5385    3.6798   48.4796 H       1  ZINC001065334255    0.0900
     48 H48        -0.5489    1.9568   50.0287 H       1  ZINC001065334255    0.0600
     49 H49        -0.1683    3.2616   48.8779 H       1  ZINC001065334255    0.1100
@<TRIPOS>BOND
     1     1     2    1
     2     1    26    1
     3     1    27    1
     4     1    28    1
     5     2     3    1
     6     2     4    1
     7     2    29    1
     8     3    30    1
     9     3    31    1
    10     3    32    1
    11     4     5    1
    12     4    33    1
    13     4    34    1
    14     5     6    2
    15     5     7   am
    16     7     8    1
    17     7    35    1
    18     8     9    1
    19     8    36    1
    20     8    37    1
    21     9    10    1
    22     9    25    1
    23     9    11    1
    24    11    12    1
    25    11    38    1
    26    11    39    1
    27    12    13   am
    28    12    23    1
    29    13    14    2
    30    13    15    1
    31    15    16    1
    32    15    22    1
    33    15    17    1
    34    17    18    1
    35    17    40    1
    36    17    41    1
    37    18    19    1
    38    18    42    1
    39    18    43    1
    40    19    20    2
    41    19    21    2
    42    19    22    1
    43    22    44    1
    44    22    45    1
    45    23    24    1
    46    23    46    1
    47    23    47    1
    48    24    25    1
    49    24    48    1
    50    24    49    1
@<TRIPOS>SUBSTRUCTURE
     1 ZINC001065334255        1 TEMP              0 ****  ****    0 ROOT


##########                                Name:    ZINC000489403631
##########                DOCK_Rotatable_Bonds:                   7
##########                         Heavy_Atoms:                  28
##########                    Molecular_Weight:             381.391
##########                DOCK_Rotatable_Bonds:                   7
##########                       Formal_Charge:          -0.0300003
##########                     HBond_Acceptors:                   9
##########                        HBond_Donors:                   1
##########                         Heavy_Atoms:                  28
##########                          Grid_Score:          -32.405613
##########                     Grid_vdw_energy:          -32.157806
##########                      Grid_es_energy:           -0.247806
##########           Internal_energy_repulsive:           10.540739

@<TRIPOS>MOLECULE
ZINC000489403631
 47 49 1 0 0
SMALL
USER_CHARGES


@<TRIPOS>ATOM
      1 C1         -0.2007    4.2270   51.0550 C.3     1  ZINC000489403631   -0.1100
      2 C2         -1.1964    3.5118   50.1788 C.ar    1  ZINC000489403631   -0.0800
      3 C3         -2.5192    3.4266   50.5645 C.ar    1  ZINC000489403631   -0.0900
      4 C4         -3.4368    2.7673   49.7569 C.ar    1  ZINC000489403631    0.1200
      5 N5         -4.7793    2.6810   50.1477 N.am    1  ZINC000489403631   -0.6600
      6 C6         -5.2110    1.6106   50.8435 C.2     1  ZINC000489403631    0.5100
      7 O7         -4.4373    0.7219   51.1314 O.2     1  ZINC000489403631   -0.4600
      8 C8         -6.6553    1.5177   51.2639 C.3     1  ZINC000489403631    0.1700
      9 C9         -7.4831    2.5322   50.4724 C.3     1  ZINC000489403631   -0.1700
     10 C10        -7.1773    0.1065   50.9869 C.3     1  ZINC000489403631   -0.1700
     11 N11        -6.7667    1.8072   52.6957 N.pl3   1  ZINC000489403631   -0.3400
     12 C12        -7.5913    1.1913   53.5684 C.2     1  ZINC000489403631    0.1500
     13 C13        -7.3917    1.7460   54.7864 C.2     1  ZINC000489403631   -0.1900
     14 N14        -8.0871    1.3718   56.0383 N.pl3   1  ZINC000489403631    0.0700
     15 O15        -7.8360    1.9614   57.0741 O.2     1  ZINC000489403631   -0.1700
     16 O16        -8.9104    0.4742   56.0326 O.2     1  ZINC000489403631   -0.1600
     17 C17        -6.4115    2.7350   54.6534 C.2     1  ZINC000489403631    0.1000
     18 N18        -6.0319    2.7684   53.4017 N.2     1  ZINC000489403631   -0.2200
     19 C19        -3.0231    2.1943   48.5619 C.ar    1  ZINC000489403631   -0.1100
     20 C20        -1.6995    2.2802   48.1770 C.ar    1  ZINC000489403631   -0.1700
     21 C21        -0.7847    2.9437   48.9814 C.ar    1  ZINC000489403631    0.1000
     22 O22         0.5182    3.0280   48.6020 O.3     1  ZINC000489403631   -0.2500
     23 C23         1.2456    1.8828   48.5625 C.ar    1  ZINC000489403631    0.1400
     24 C24         1.5299    1.1766   49.7290 C.ar    1  ZINC000489403631   -0.2000
     25 C25         2.2724    0.0167   49.6467 C.ar    1  ZINC000489403631    0.1200
     26 N26         2.7110   -0.4244   48.4828 N.ar    1  ZINC000489403631   -0.4900
     27 C27         2.4624    0.2164   47.3563 C.ar    1  ZINC000489403631    0.1200
     28 C28         1.7219    1.3806   47.3537 C.ar    1  ZINC000489403631   -0.1800
     29 H29        -0.1642    5.2807   50.7782 H       1  ZINC000489403631    0.0700
     30 H30        -0.5033    4.1357   52.0982 H       1  ZINC000489403631    0.0700
     31 H31         0.7855    3.7822   50.9224 H       1  ZINC000489403631    0.0700
     32 H32        -2.8404    3.8721   51.4945 H       1  ZINC000489403631    0.1500
     33 H33        -5.3980    3.3916   49.9175 H       1  ZINC000489403631    0.4100
     34 H34        -7.4001    2.3167   49.4071 H       1  ZINC000489403631    0.1000
     35 H35        -8.5276    2.4650   50.7764 H       1  ZINC000489403631    0.0900
     36 H36        -7.1111    3.5376   50.6698 H       1  ZINC000489403631    0.0800
     37 H37        -6.5876   -0.6164   51.5507 H       1  ZINC000489403631    0.0800
     38 H38        -8.2219    0.0393   51.2909 H       1  ZINC000489403631    0.0900
     39 H39        -7.0944   -0.1090   49.9216 H       1  ZINC000489403631    0.0900
     40 H40        -8.2863    0.3978   53.3363 H       1  ZINC000489403631    0.2000
     41 H41        -6.0304    3.3597   55.4476 H       1  ZINC000489403631    0.2100
     42 H42        -3.7360    1.6812   47.9336 H       1  ZINC000489403631    0.1300
     43 H43        -1.3776    1.8345   47.2474 H       1  ZINC000489403631    0.1300
     44 H44         1.1743    1.5323   50.6847 H       1  ZINC000489403631    0.1400
     45 H45         2.4979   -0.5370   50.5461 H       1  ZINC000489403631    0.1600
     46 H46         2.8398   -0.1776   46.4242 H       1  ZINC000489403631    0.1700
     47 H47         1.5217    1.9000   46.4283 H       1  ZINC000489403631    0.1500
@<TRIPOS>BOND
     1     1     2    1
     2     1    29    1
     3     1    30    1
     4     1    31    1
     5     2    21   ar
     6     2     3   ar
     7     3     4   ar
     8     3    32    1
     9     4     5    1
    10     4    19   ar
    11     5     6   am
    12     5    33    1
    13     6     7    2
    14     6     8    1
    15     8     9    1
    16     8    10    1
    17     8    11    1
    18     9    34    1
    19     9    35    1
    20     9    36    1
    21    10    37    1
    22    10    38    1
    23    10    39    1
    24    11    18    1
    25    11    12    1
    26    12    13    2
    27    12    40    1
    28    13    14    1
    29    13    17    1
    30    14    15    2
    31    14    16    2
    32    17    18    2
    33    17    41    1
    34    19    20   ar
    35    19    42    1
    36    20    21   ar
    37    20    43    1
    38    21    22    1
    39    22    23    1
    40    23    28   ar
    41    23    24   ar
    42    24    25   ar
    43    24    44    1
    44    25    26   ar
    45    25    45    1
    46    26    27   ar
    47    27    28   ar
    48    27    46    1
    49    28    47    1
@<TRIPOS>SUBSTRUCTURE
     1 ZINC000489403631        1 TEMP              0 ****  ****    0 ROOT


##########                                Name:    ZINC000151991096
##########                DOCK_Rotatable_Bonds:                   8
##########                         Heavy_Atoms:                  27
##########                    Molecular_Weight:             364.444
##########                DOCK_Rotatable_Bonds:                   8
##########                       Formal_Charge:          -0.0200004
##########                     HBond_Acceptors:                   5
##########                        HBond_Donors:                   1
##########                         Heavy_Atoms:                  27
##########                          Grid_Score:          -32.364994
##########                     Grid_vdw_energy:          -31.647072
##########                      Grid_es_energy:           -0.717923
##########           Internal_energy_repulsive:           11.175660

@<TRIPOS>MOLECULE
ZINC000151991096
 51 53 1 0 0
SMALL
USER_CHARGES


@<TRIPOS>ATOM
      1 C1        -10.5928    0.4973   55.9902 C.3     1  ZINC000151991096   -0.1500
      2 C2        -10.2714    1.5455   54.9230 C.3     1  ZINC000151991096   -0.1300
      3 C3        -10.6289    0.9932   53.5417 C.3     1  ZINC000151991096    0.1400
      4 H4        -10.7773   -0.0846   53.6086 H       1  ZINC000151991096    0.1000
      5 N5         -9.5397    1.2790   52.6047 N.am    1  ZINC000151991096   -0.7200
      6 C6         -8.5429    0.3874   52.4378 C.2     1  ZINC000151991096    0.5600
      7 O7         -8.5468   -0.6535   53.0662 O.2     1  ZINC000151991096   -0.5300
      8 C8         -7.4464    0.6746   51.4923 C.ar    1  ZINC000151991096   -0.1700
      9 C9         -7.5307    1.7750   50.6353 C.ar    1  ZINC000151991096   -0.0500
     10 C10        -6.5054    2.0398   49.7550 C.ar    1  ZINC000151991096   -0.1600
     11 C11        -5.3878    1.2142   49.7182 C.ar    1  ZINC000151991096    0.1600
     12 O12        -4.3793    1.4788   48.8495 O.3     1  ZINC000151991096   -0.3000
     13 C13        -3.8013    2.7845   48.9047 C.3     1  ZINC000151991096    0.0900
     14 C14        -2.5544    2.7466   49.7502 C.ar    1  ZINC000151991096   -0.0500
     15 C15        -2.6114    3.0999   51.0822 C.ar    1  ZINC000151991096   -0.1000
     16 C16        -1.4673    3.0656   51.8599 C.ar    1  ZINC000151991096   -0.0900
     17 C17        -0.2594    2.6778   51.3082 C.ar    1  ZINC000151991096   -0.1200
     18 C18        -0.1881    2.3219   49.9771 C.ar    1  ZINC000151991096   -0.0700
     19 C19        -1.3396    2.3482   49.1882 C.ar    1  ZINC000151991096   -0.0200
     20 C20        -1.2730    1.9799   47.8058 C.1     1  ZINC000151991096    0.2400
     21 N21        -1.2201    1.6879   46.7094 N.1     1  ZINC000151991096   -0.4000
     22 C22        -5.3003    0.1186   50.5690 C.ar    1  ZINC000151991096   -0.2200
     23 C23        -6.3189   -0.1499   51.4559 C.ar    1  ZINC000151991096   -0.0100
     24 C24       -11.9158    1.6553   53.0452 C.3     1  ZINC000151991096    0.0700
     25 H25       -11.9578    2.6879   53.3917 H       1  ZINC000151991096    0.1000
     26 C26       -13.1414    0.8767   53.5699 C.3     1  ZINC000151991096   -0.1500
     27 C27       -14.1017    0.9127   52.3499 C.3     1  ZINC000151991096   -0.1600
     28 C28       -13.0907    0.8475   51.1776 C.3     1  ZINC000151991096    0.0500
     29 O29       -11.9590    1.6208   51.6139 O.3     1  ZINC000151991096   -0.3700
     30 H30       -10.0131   -0.4057   55.7988 H       1  ZINC000151991096    0.0500
     31 H31       -10.3382    0.8908   56.9743 H       1  ZINC000151991096    0.0500
     32 H32       -11.6562    0.2601   55.9579 H       1  ZINC000151991096    0.0600
     33 H33       -10.8512    2.4485   55.1144 H       1  ZINC000151991096    0.0700
     34 H34        -9.2080    1.7828   54.9554 H       1  ZINC000151991096    0.0700
     35 H35        -9.5360    2.1100   52.1042 H       1  ZINC000151991096    0.4000
     36 H36        -8.3988    2.4168   50.6631 H       1  ZINC000151991096    0.1300
     37 H37        -6.5699    2.8899   49.0920 H       1  ZINC000151991096    0.1400
     38 H38        -3.5469    3.1121   47.8967 H       1  ZINC000151991096    0.0800
     39 H39        -4.5166    3.4802   49.3433 H       1  ZINC000151991096    0.0800
     40 H40        -3.5510    3.4042   51.5190 H       1  ZINC000151991096    0.1400
     41 H41        -1.5176    3.3433   52.9024 H       1  ZINC000151991096    0.1400
     42 H42         0.6298    2.6541   51.9207 H       1  ZINC000151991096    0.1400
     43 H43         0.7557    2.0197   49.5475 H       1  ZINC000151991096    0.1400
     44 H44        -4.4304   -0.5207   50.5372 H       1  ZINC000151991096    0.1300
     45 H45        -6.2500   -1.0012   52.1170 H       1  ZINC000151991096    0.1400
     46 H46       -12.8711   -0.1491   53.8206 H       1  ZINC000151991096    0.0800
     47 H47       -13.5845    1.3830   54.4275 H       1  ZINC000151991096    0.0900
     48 H48       -14.7643    0.0473   52.3458 H       1  ZINC000151991096    0.0800
     49 H49       -14.6717    1.8416   52.3258 H       1  ZINC000151991096    0.0800
     50 H50       -12.7948   -0.1847   50.9902 H       1  ZINC000151991096    0.0600
     51 H51       -13.5241    1.2867   50.2791 H       1  ZINC000151991096    0.0900
@<TRIPOS>BOND
     1     1     2    1
     2     1    30    1
     3     1    31    1
     4     1    32    1
     5     2     3    1
     6     2    33    1
     7     2    34    1
     8     3     4    1
     9     3     5    1
    10     3    24    1
    11     5     6   am
    12     5    35    1
    13     6     7    2
    14     6     8    1
    15     8    23   ar
    16     8     9   ar
    17     9    10   ar
    18     9    36    1
    19    10    11   ar
    20    10    37    1
    21    11    12    1
    22    11    22   ar
    23    12    13    1
    24    13    14    1
    25    13    38    1
    26    13    39    1
    27    14    19   ar
    28    14    15   ar
    29    15    16   ar
    30    15    40    1
    31    16    17   ar
    32    16    41    1
    33    17    18   ar
    34    17    42    1
    35    18    19   ar
    36    18    43    1
    37    19    20    1
    38    20    21    3
    39    22    23   ar
    40    22    44    1
    41    23    45    1
    42    24    25    1
    43    24    29    1
    44    24    26    1
    45    26    27    1
    46    26    46    1
    47    26    47    1
    48    27    28    1
    49    27    48    1
    50    27    49    1
    51    28    29    1
    52    28    50    1
    53    28    51    1
@<TRIPOS>SUBSTRUCTURE
     1 ZINC000151991096        1 TEMP              0 ****  ****    0 ROOT


##########                                Name:    ZINC001326371752
##########                DOCK_Rotatable_Bonds:                   5
##########                         Heavy_Atoms:                  25
##########                    Molecular_Weight:             360.397
##########                DOCK_Rotatable_Bonds:                   5
##########                       Formal_Charge:           0.0199999
##########                     HBond_Acceptors:                  10
##########                        HBond_Donors:                   0
##########                         Heavy_Atoms:                  25
##########                          Grid_Score:          -32.357689
##########                     Grid_vdw_energy:          -33.282871
##########                      Grid_es_energy:            0.925184
##########           Internal_energy_repulsive:            8.287163

@<TRIPOS>MOLECULE
ZINC001326371752
 41 44 1 0 0
SMALL
USER_CHARGES


@<TRIPOS>ATOM
      1 C1         -8.2961   -0.0139   62.5244 C.3     1  ZINC001326371752    0.0300
      2 O2         -8.4886   -0.5374   61.2087 O.3     1  ZINC001326371752   -0.3800
      3 C3         -8.0787    0.3484   60.1650 C.3     1  ZINC001326371752    0.0500
      4 C4         -8.3572   -0.2996   58.8073 C.3     1  ZINC001326371752    0.1200
      5 N5         -8.0078    0.6383   57.7376 N.pl3   1  ZINC001326371752   -0.2800
      6 N6         -7.0141    1.4624   57.7460 N.2     1  ZINC001326371752   -0.0800
      7 N7         -6.9912    2.1460   56.6518 N.2     1  ZINC001326371752   -0.2500
      8 C8         -8.0086    1.7602   55.8903 C.2     1  ZINC001326371752   -0.0400
      9 C9         -8.6627    0.7877   56.5723 C.2     1  ZINC001326371752    0.0000
     10 C10        -9.8801    0.0594   56.0697 C.3     1  ZINC001326371752   -0.0600
     11 C11       -10.5041    0.8716   54.9271 C.3     1  ZINC001326371752    0.1200
     12 N12        -9.4414    1.3202   54.0154 N.am    1  ZINC001326371752   -0.6100
     13 C13        -9.3976    0.8861   52.7402 C.2     1  ZINC001326371752    0.6100
     14 O14       -10.2442    0.1134   52.3312 O.2     1  ZINC001326371752   -0.5100
     15 C15        -8.3292    1.3449   51.8450 C.2     1  ZINC001326371752   -0.3400
     16 C16        -8.3184    2.6590   51.3632 C.2     1  ZINC001326371752    0.2400
     17 N17        -7.3421    3.0371   50.5601 N.2     1  ZINC001326371752   -0.5100
     18 C18        -6.3722    2.2084   50.1969 C.2     1  ZINC001326371752    0.2900
     19 S19        -5.0082    2.4588   49.1753 S.3     1  ZINC001326371752    0.2500
     20 C20        -4.3880    0.8093   49.3472 C.2     1  ZINC001326371752   -0.2100
     21 C21        -5.2399    0.1952   50.1507 C.2     1  ZINC001326371752    0.0500
     22 N22        -6.3097    0.9186   50.6200 N.am    1  ZINC001326371752   -0.4600
     23 C23        -7.2899    0.4707   51.4585 C.2     1  ZINC001326371752    0.5500
     24 O24        -7.2705   -0.6775   51.8670 O.2     1  ZINC001326371752   -0.5000
     25 C25        -8.4217    2.2536   54.5269 C.3     1  ZINC001326371752    0.2000
     26 H26        -8.6314   -0.7457   63.2592 H       1  ZINC001326371752    0.0900
     27 H27        -7.2384    0.1987   62.6797 H       1  ZINC001326371752    0.0500
     28 H28        -8.8717    0.9048   62.6377 H       1  ZINC001326371752    0.0500
     29 H29        -8.6346    1.2830   60.2423 H       1  ZINC001326371752    0.0600
     30 H30        -7.0119    0.5514   60.2587 H       1  ZINC001326371752    0.0600
     31 H31        -7.7582   -1.2047   58.7070 H       1  ZINC001326371752    0.1200
     32 H32        -9.4147   -0.5541   58.7362 H       1  ZINC001326371752    0.1200
     33 H33        -9.5912   -0.9255   55.7028 H       1  ZINC001326371752    0.0900
     34 H34       -10.6023   -0.0472   56.8791 H       1  ZINC001326371752    0.1000
     35 H35       -11.2124    0.2479   54.3816 H       1  ZINC001326371752    0.1100
     36 H36       -11.0220    1.7386   55.3372 H       1  ZINC001326371752    0.0800
     37 H37        -9.0971    3.3525   51.6441 H       1  ZINC001326371752    0.1900
     38 H38        -3.5017    0.3928   48.8918 H       1  ZINC001326371752    0.2200
     39 H39        -5.0998   -0.8390   50.4283 H       1  ZINC001326371752    0.2000
     40 H40        -8.8443    3.2547   54.6124 H       1  ZINC001326371752    0.1000
     41 H41        -7.5624    2.2684   53.8566 H       1  ZINC001326371752    0.1000
@<TRIPOS>BOND
     1     1     2    1
     2     1    26    1
     3     1    27    1
     4     1    28    1
     5     2     3    1
     6     3     4    1
     7     3    29    1
     8     3    30    1
     9     4     5    1
    10     4    31    1
    11     4    32    1
    12     5     9    1
    13     5     6    1
    14     6     7    2
    15     7     8    1
    16     8    25    1
    17     8     9    2
    18     9    10    1
    19    10    11    1
    20    10    33    1
    21    10    34    1
    22    11    12    1
    23    11    35    1
    24    11    36    1
    25    12    13   am
    26    12    25    1
    27    13    14    2
    28    13    15    1
    29    15    23    1
    30    15    16    2
    31    16    17    1
    32    16    37    1
    33    17    18    2
    34    18    22    1
    35    18    19    1
    36    19    20    1
    37    20    21    2
    38    20    38    1
    39    21    22    1
    40    21    39    1
    41    22    23   am
    42    23    24    2
    43    25    40    1
    44    25    41    1
@<TRIPOS>SUBSTRUCTURE
     1 ZINC001326371752        1 TEMP              0 ****  ****    0 ROOT


##########                                Name:    ZINC000880838037
##########                DOCK_Rotatable_Bonds:                   9
##########                         Heavy_Atoms:                  24
##########                    Molecular_Weight:             365.477
##########                DOCK_Rotatable_Bonds:                   9
##########                       Formal_Charge:           0.0200001
##########                     HBond_Acceptors:                   8
##########                        HBond_Donors:                   3
##########                         Heavy_Atoms:                  24
##########                          Grid_Score:          -32.336407
##########                     Grid_vdw_energy:          -31.119467
##########                      Grid_es_energy:           -1.216939
##########           Internal_energy_repulsive:            9.636550

@<TRIPOS>MOLECULE
ZINC000880838037
 43 44 1 0 0
SMALL
USER_CHARGES


@<TRIPOS>ATOM
      1 C1         -0.4017    3.8332   52.3460 C.3     1  ZINC000880838037    0.0300
      2 O2         -1.1348    4.5210   51.3304 O.3     1  ZINC000880838037   -0.3100
      3 C3         -1.6558    3.7665   50.3274 C.ar    1  ZINC000880838037    0.1400
      4 C4         -0.8419    3.3321   49.2908 C.ar    1  ZINC000880838037   -0.2200
      5 C5         -1.3704    2.5647   48.2700 C.ar    1  ZINC000880838037   -0.0700
      6 C6         -2.7100    2.2282   48.2779 C.ar    1  ZINC000880838037   -0.1500
      7 C7         -3.5296    2.6607   49.3129 C.ar    1  ZINC000880838037    0.1800
      8 N8         -4.8867    2.3198   49.3209 N.am    1  ZINC000880838037   -0.6700
      9 C9         -5.2818    1.1387   49.8360 C.2     1  ZINC000880838037    0.5200
     10 O10        -4.4611    0.3713   50.2925 O.2     1  ZINC000880838037   -0.4900
     11 C11        -6.7433    0.7716   49.8446 C.3     1  ZINC000880838037   -0.0600
     12 C12        -7.2375    0.7102   51.2670 C.2     1  ZINC000880838037    0.1000
     13 C13        -8.0988   -0.2151   51.6910 C.2     1  ZINC000880838037   -0.2600
     14 S14        -8.4105    0.0700   53.4013 S.3     1  ZINC000880838037    0.1300
     15 C15        -7.3493    1.4103   53.3822 C.2     1  ZINC000880838037    0.0100
     16 S16        -6.9834    2.4281   54.7733 S.3     1  ZINC000880838037    0.1000
     17 C17        -7.8823    1.5318   56.0635 C.3     1  ZINC000880838037   -0.1500
     18 H18        -7.8982    0.4686   55.8236 H       1  ZINC000880838037    0.1200
     19 C19        -9.3166    2.0578   56.1452 C.3     1  ZINC000880838037   -0.1500
     20 C20        -7.1957    1.7373   57.3893 C.2     1  ZINC000880838037    0.5400
     21 N21        -6.6745    2.9410   57.6988 N.am    1  ZINC000880838037   -0.8400
     22 O22        -7.1122    0.8195   58.1776 O.2     1  ZINC000880838037   -0.5200
     23 N23        -6.8480    1.5653   52.1954 N.2     1  ZINC000880838037   -0.4200
     24 C24        -2.9994    3.4256   50.3420 C.ar    1  ZINC000880838037   -0.1500
     25 C25        -3.8855    3.8966   51.4664 C.3     1  ZINC000880838037   -0.1000
     26 H26         0.4469    3.3182   51.8959 H       1  ZINC000880838037    0.0600
     27 H27        -0.0418    4.5508   53.0835 H       1  ZINC000880838037    0.1000
     28 H28        -1.0510    3.1061   52.8336 H       1  ZINC000880838037    0.0600
     29 H29         0.2057    3.5943   49.2816 H       1  ZINC000880838037    0.1300
     30 H30        -0.7348    2.2279   47.4644 H       1  ZINC000880838037    0.1300
     31 H31        -3.1206    1.6287   47.4788 H       1  ZINC000880838037    0.1400
     32 H32        -5.5430    2.9337   48.9558 H       1  ZINC000880838037    0.4100
     33 H33        -7.3100    1.5234   49.2953 H       1  ZINC000880838037    0.1200
     34 H34        -6.8765   -0.2012   49.3714 H       1  ZINC000880838037    0.1200
     35 H35        -8.5307   -1.0020   51.0905 H       1  ZINC000880838037    0.1800
     36 H36        -9.3007    3.1209   56.3851 H       1  ZINC000880838037    0.0900
     37 H37        -9.8133    1.9091   55.1863 H       1  ZINC000880838037    0.0800
     38 H38        -9.8579    1.5180   56.9221 H       1  ZINC000880838037    0.0800
     39 H39        -6.2336    3.0737   58.5525 H       1  ZINC000880838037    0.4000
     40 H40        -6.7402    3.6747   57.0677 H       1  ZINC000880838037    0.4100
     41 H41        -3.8860    3.1538   52.2641 H       1  ZINC000880838037    0.0700
     42 H42        -3.5099    4.8442   51.8525 H       1  ZINC000880838037    0.0700
     43 H43        -4.9015    4.0324   51.0958 H       1  ZINC000880838037    0.0600
@<TRIPOS>BOND
     1     1     2    1
     2     1    26    1
     3     1    27    1
     4     1    28    1
     5     2     3    1
     6     3    24   ar
     7     3     4   ar
     8     4     5   ar
     9     4    29    1
    10     5     6   ar
    11     5    30    1
    12     6     7   ar
    13     6    31    1
    14     7     8    1
    15     7    24   ar
    16     8     9   am
    17     8    32    1
    18     9    10    2
    19     9    11    1
    20    11    12    1
    21    11    33    1
    22    11    34    1
    23    12    23    1
    24    12    13    2
    25    13    14    1
    26    13    35    1
    27    14    15    1
    28    15    16    1
    29    15    23    2
    30    16    17    1
    31    17    18    1
    32    17    19    1
    33    17    20    1
    34    19    36    1
    35    19    37    1
    36    19    38    1
    37    20    21   am
    38    20    22    2
    39    21    39    1
    40    21    40    1
    41    24    25    1
    42    25    41    1
    43    25    42    1
    44    25    43    1
@<TRIPOS>SUBSTRUCTURE
     1 ZINC000880838037        1 TEMP              0 ****  ****    0 ROOT


##########                                Name:    ZINC001327099466
##########                DOCK_Rotatable_Bonds:                   7
##########                         Heavy_Atoms:                  27
##########                    Molecular_Weight:             374.483
##########                DOCK_Rotatable_Bonds:                   7
##########                       Formal_Charge:           0.0199998
##########                     HBond_Acceptors:                   7
##########                        HBond_Donors:                   1
##########                         Heavy_Atoms:                  27
##########                          Grid_Score:          -32.328491
##########                     Grid_vdw_energy:          -32.268784
##########                      Grid_es_energy:           -0.059706
##########           Internal_energy_repulsive:           19.591284

@<TRIPOS>MOLECULE
ZINC001327099466
 57 60 1 0 0
SMALL
USER_CHARGES


@<TRIPOS>ATOM
      1 O1         -7.0406   -0.6434   52.6908 O.2     1  ZINC001327099466   -0.4800
      2 C2         -7.4574    0.0760   51.8064 C.2     1  ZINC001327099466    0.5300
      3 N3         -8.7158    0.5552   51.8642 N.am    1  ZINC001327099466   -0.6000
      4 C4         -9.5437    0.2188   52.9409 C.2     1  ZINC001327099466    0.2900
      5 N5         -9.2168   -0.5483   53.9548 N.2     1  ZINC001327099466   -0.3100
      6 N6        -10.3216   -0.6336   54.8117 N.pl3   1  ZINC001327099466   -0.3500
      7 C7        -10.3826   -1.3911   56.0642 C.3     1  ZINC001327099466    0.1700
      8 C8        -10.0451   -0.4671   57.2360 C.3     1  ZINC001327099466   -0.1300
      9 C9        -10.1090   -1.2582   58.5441 C.3     1  ZINC001327099466   -0.1200
     10 C10       -11.5184   -1.8236   58.7300 C.3     1  ZINC001327099466   -0.1300
     11 C11       -11.8559   -2.7475   57.5581 C.3     1  ZINC001327099466   -0.1200
     12 C12       -11.7922   -1.9564   56.2501 C.3     1  ZINC001327099466   -0.1300
     13 C13       -11.3199    0.1046   54.2821 C.2     1  ZINC001327099466    0.0700
     14 C14       -10.8679    0.6476   53.1291 C.2     1  ZINC001327099466   -0.2700
     15 C15        -6.5737    0.4350   50.6572 C.2     1  ZINC001327099466    0.5100
     16 O16        -6.3424   -0.3828   49.7909 O.2     1  ZINC001327099466   -0.5100
     17 N17        -6.0330    1.6673   50.5822 N.am    1  ZINC001327099466   -0.5700
     18 C18        -5.1618    2.0353   49.4577 C.3     1  ZINC001327099466    0.0400
     19 C19        -3.8400    2.5742   50.0139 C.3     1  ZINC001327099466   -0.1300
     20 C20        -4.1297    3.7203   50.9859 C.3     1  ZINC001327099466   -0.1200
     21 C21        -4.9693    3.2002   52.1548 C.3     1  ZINC001327099466    0.0800
     22 H22        -4.4325    2.3966   52.6591 H       1  ZINC001327099466    0.0700
     23 O23        -5.2126    4.2637   53.0777 O.3     1  ZINC001327099466   -0.3500
     24 C24        -4.1895    4.4245   54.0622 C.3     1  ZINC001327099466    0.0600
     25 C25        -4.2104    5.7980   54.7537 C.3     1  ZINC001327099466   -0.1600
     26 C26        -5.1745    5.1790   55.7796 C.3     1  ZINC001327099466   -0.1400
     27 C27        -4.5492    3.8185   55.4291 C.3     1  ZINC001327099466   -0.1400
     28 C28        -6.3084    2.6701   51.6201 C.3     1  ZINC001327099466    0.0900
     29 H29        -9.0475    1.1332   51.1594 H       1  ZINC001327099466    0.4300
     30 H30        -9.6644   -2.2102   56.0289 H       1  ZINC001327099466    0.1000
     31 H31        -9.0410   -0.0643   57.1036 H       1  ZINC001327099466    0.0700
     32 H32       -10.7635    0.3520   57.2714 H       1  ZINC001327099466    0.0700
     33 H33        -9.3907   -2.0772   58.5087 H       1  ZINC001327099466    0.0700
     34 H34        -9.8685   -0.5998   59.3789 H       1  ZINC001327099466    0.0700
     35 H35       -11.5640   -2.3871   59.6618 H       1  ZINC001327099466    0.0700
     36 H36       -12.2368   -1.0044   58.7653 H       1  ZINC001327099466    0.0700
     37 H37       -11.1377   -3.5667   57.5227 H       1  ZINC001327099466    0.0700
     38 H38       -12.8602   -3.1503   57.6905 H       1  ZINC001327099466    0.0700
     39 H39       -12.5104   -1.1373   56.2854 H       1  ZINC001327099466    0.0700
     40 H40       -12.0326   -2.6147   55.4152 H       1  ZINC001327099466    0.0700
     41 H41       -12.3038    0.2407   54.7061 H       1  ZINC001327099466    0.1800
     42 H42       -11.4277    1.2920   52.4674 H       1  ZINC001327099466    0.1700
     43 H43        -4.9682    1.1565   48.8427 H       1  ZINC001327099466    0.1600
     44 H44        -5.6462    2.8049   48.8568 H       1  ZINC001327099466    0.0700
     45 H45        -3.3139    1.7766   50.5383 H       1  ZINC001327099466    0.0700
     46 H46        -3.2225    2.9401   49.1936 H       1  ZINC001327099466    0.0900
     47 H47        -3.1896    4.1218   51.3642 H       1  ZINC001327099466    0.0800
     48 H48        -4.6775    4.5069   50.4669 H       1  ZINC001327099466    0.0800
     49 H49        -3.2040    4.1313   53.7004 H       1  ZINC001327099466    0.0700
     50 H50        -3.2491    6.0880   55.1777 H       1  ZINC001327099466    0.0900
     51 H51        -4.6622    6.5844   54.1492 H       1  ZINC001327099466    0.0700
     52 H52        -4.9836    5.4961   56.8048 H       1  ZINC001327099466    0.0700
     53 H53        -6.2242    5.2626   55.4981 H       1  ZINC001327099466    0.0800
     54 H54        -5.2745    3.0070   55.3697 H       1  ZINC001327099466    0.0800
     55 H55        -3.6805    3.5674   56.0376 H       1  ZINC001327099466    0.0900
     56 H56        -6.8842    3.4932   51.1969 H       1  ZINC001327099466    0.0900
     57 H57        -6.8695    2.2087   52.4327 H       1  ZINC001327099466    0.1000
@<TRIPOS>BOND
     1     1     2    2
     2     2     3   am
     3     2    15    1
     4     3     4    1
     5     3    29    1
     6     4    14    1
     7     4     5    2
     8     5     6    1
     9     6     7    1
    10     6    13    1
    11     7    12    1
    12     7     8    1
    13     7    30    1
    14     8     9    1
    15     8    31    1
    16     8    32    1
    17     9    10    1
    18     9    33    1
    19     9    34    1
    20    10    11    1
    21    10    35    1
    22    10    36    1
    23    11    12    1
    24    11    37    1
    25    11    38    1
    26    12    39    1
    27    12    40    1
    28    13    14    2
    29    13    41    1
    30    14    42    1
    31    15    16    2
    32    15    17   am
    33    17    28    1
    34    17    18    1
    35    18    19    1
    36    18    43    1
    37    18    44    1
    38    19    20    1
    39    19    45    1
    40    19    46    1
    41    20    21    1
    42    20    47    1
    43    20    48    1
    44    21    22    1
    45    21    23    1
    46    21    28    1
    47    23    24    1
    48    24    27    1
    49    24    25    1
    50    24    49    1
    51    25    26    1
    52    25    50    1
    53    25    51    1
    54    26    27    1
    55    26    52    1
    56    26    53    1
    57    27    54    1
    58    27    55    1
    59    28    56    1
    60    28    57    1
@<TRIPOS>SUBSTRUCTURE
     1 ZINC001327099466        1 TEMP              0 ****  ****    0 ROOT


##########                                Name:    ZINC000477589488
##########                DOCK_Rotatable_Bonds:                   6
##########                         Heavy_Atoms:                  32
##########                    Molecular_Weight:             423.517
##########                DOCK_Rotatable_Bonds:                   6
##########                       Formal_Charge:        -8.19564e-07
##########                     HBond_Acceptors:                   6
##########                        HBond_Donors:                   1
##########                         Heavy_Atoms:                  32
##########                          Grid_Score:          -32.325054
##########                     Grid_vdw_energy:          -32.498962
##########                      Grid_es_energy:            0.173908
##########           Internal_energy_repulsive:           21.823587

@<TRIPOS>MOLECULE
ZINC000477589488
 57 61 1 0 0
SMALL
USER_CHARGES


@<TRIPOS>ATOM
      1 O1         -8.2739   -0.1066   51.6338 O.2     1  ZINC000477589488   -0.5800
      2 C2         -7.7953    0.9568   51.9783 C.2     1  ZINC000477589488    0.7100
      3 N3         -8.1176    1.4846   53.1757 N.am    1  ZINC000477589488   -0.7400
      4 C4         -9.0494    0.7802   54.0598 C.3     1  ZINC000477589488    0.2500
      5 H5         -8.9934   -0.2912   53.8672 H       1  ZINC000477589488    0.1100
      6 C6        -10.4525    1.2646   53.7995 C.ar    1  ZINC000477589488   -0.0900
      7 C7        -10.7289    2.6191   53.8095 C.ar    1  ZINC000477589488   -0.1000
      8 C8        -12.0159    3.0636   53.5707 C.ar    1  ZINC000477589488   -0.1200
      9 C9        -13.0264    2.1536   53.3215 C.ar    1  ZINC000477589488   -0.1200
     10 C10       -12.7497    0.7993   53.3107 C.ar    1  ZINC000477589488   -0.1200
     11 C11       -11.4618    0.3550   53.5452 C.ar    1  ZINC000477589488   -0.1000
     12 C12        -8.6824    1.0522   55.4959 C.ar    1  ZINC000477589488   -0.0700
     13 C13        -9.1077    0.1790   56.5111 C.ar    1  ZINC000477589488   -0.0400
     14 C14        -9.8780   -0.9597   56.2192 C.ar    1  ZINC000477589488   -0.1100
     15 C15       -10.2718   -1.7832   57.2285 C.ar    1  ZINC000477589488   -0.1100
     16 C16        -9.9231   -1.5149   58.5511 C.ar    1  ZINC000477589488   -0.1100
     17 C17        -9.1787   -0.4217   58.8716 C.ar    1  ZINC000477589488   -0.1100
     18 C18        -8.7527    0.4516   57.8561 C.ar    1  ZINC000477589488   -0.0500
     19 C19        -7.9825    1.5898   58.1481 C.ar    1  ZINC000477589488   -0.1000
     20 C20        -7.5875    2.4129   57.1383 C.ar    1  ZINC000477589488   -0.1100
     21 C21        -7.9322    2.1422   55.8156 C.ar    1  ZINC000477589488   -0.1100
     22 N22        -6.9380    1.6048   51.1649 N.am    1  ZINC000477589488   -0.6300
     23 C23        -6.3382    2.8862   51.5669 C.3     1  ZINC000477589488    0.1300
     24 C24        -4.8198    2.7920   51.3829 C.3     1  ZINC000477589488    0.0500
     25 N25        -4.5218    2.3710   50.0074 N.3     1  ZINC000477589488   -0.4700
     26 C26        -3.1560    2.4307   49.7529 C.ar    1  ZINC000477589488    0.2500
     27 C27        -2.6588    2.0552   48.5056 C.ar    1  ZINC000477589488   -0.1300
     28 C28        -1.2899    2.1330   48.3026 C.ar    1  ZINC000477589488   -0.0900
     29 C29        -0.4991    2.5792   49.3520 C.ar    1  ZINC000477589488    0.0200
     30 N30        -1.0541    2.9142   50.4998 N.ar    1  ZINC000477589488   -0.2200
     31 N31        -2.3214    2.8500   50.6930 N.ar    1  ZINC000477589488   -0.2800
     32 C32        -5.0498    1.0275   49.7350 C.3     1  ZINC000477589488    0.0400
     33 C33        -6.5729    1.0464   49.8541 C.3     1  ZINC000477589488    0.1200
     34 H34        -7.7326    2.3309   53.4522 H       1  ZINC000477589488    0.3900
     35 H35        -9.9396    3.3299   54.0041 H       1  ZINC000477589488    0.1100
     36 H36       -12.2321    4.1217   53.5792 H       1  ZINC000477589488    0.1200
     37 H37       -14.0319    2.5009   53.1357 H       1  ZINC000477589488    0.1200
     38 H38       -13.5392    0.0884   53.1164 H       1  ZINC000477589488    0.1200
     39 H39       -11.2456   -0.7031   53.5367 H       1  ZINC000477589488    0.1200
     40 H40       -10.1563   -1.1799   55.1991 H       1  ZINC000477589488    0.1300
     41 H41       -10.8636   -2.6575   57.0014 H       1  ZINC000477589488    0.1300
     42 H42       -10.2489   -2.1845   59.3333 H       1  ZINC000477589488    0.1300
     43 H43        -8.9167   -0.2262   59.9010 H       1  ZINC000477589488    0.1300
     44 H44        -7.7057    1.8108   59.1683 H       1  ZINC000477589488    0.1300
     45 H45        -6.9959    3.2874   57.3655 H       1  ZINC000477589488    0.1300
     46 H46        -7.6057    2.8113   55.0332 H       1  ZINC000477589488    0.1200
     47 H47        -6.7338    3.6874   50.9427 H       1  ZINC000477589488    0.0800
     48 H48        -6.5685    3.0859   52.6134 H       1  ZINC000477589488    0.1100
     49 H49        -4.3695    3.7667   51.5706 H       1  ZINC000477589488    0.1000
     50 H50        -4.4133    2.0620   52.0828 H       1  ZINC000477589488    0.0600
     51 H51        -3.3195    1.7141   47.7223 H       1  ZINC000477589488    0.1500
     52 H52        -0.8515    1.8540   47.3558 H       1  ZINC000477589488    0.1500
     53 H53         0.5713    2.6517   49.2284 H       1  ZINC000477589488    0.1700
     54 H54        -4.7662    0.7226   48.7277 H       1  ZINC000477589488    0.1000
     55 H55        -4.6399    0.3221   50.4579 H       1  ZINC000477589488    0.0600
     56 H56        -6.9595    0.0312   49.7663 H       1  ZINC000477589488    0.0800
     57 H57        -6.9940    1.6711   49.0665 H       1  ZINC000477589488    0.0900
@<TRIPOS>BOND
     1     1     2    2
     2     2     3   am
     3     2    22   am
     4     3     4    1
     5     3    34    1
     6     4     5    1
     7     4     6    1
     8     4    12    1
     9     6    11   ar
    10     6     7   ar
    11     7     8   ar
    12     7    35    1
    13     8     9   ar
    14     8    36    1
    15     9    10   ar
    16     9    37    1
    17    10    11   ar
    18    10    38    1
    19    11    39    1
    20    12    21   ar
    21    12    13   ar
    22    13    18   ar
    23    13    14   ar
    24    14    15   ar
    25    14    40    1
    26    15    16   ar
    27    15    41    1
    28    16    17   ar
    29    16    42    1
    30    17    18   ar
    31    17    43    1
    32    18    19   ar
    33    19    20   ar
    34    19    44    1
    35    20    21   ar
    36    20    45    1
    37    21    46    1
    38    22    33    1
    39    22    23    1
    40    23    24    1
    41    23    47    1
    42    23    48    1
    43    24    25    1
    44    24    49    1
    45    24    50    1
    46    25    26    1
    47    25    32    1
    48    26    31   ar
    49    26    27   ar
    50    27    28   ar
    51    27    51    1
    52    28    29   ar
    53    28    52    1
    54    29    30   ar
    55    29    53    1
    56    30    31   ar
    57    32    33    1
    58    32    54    1
    59    32    55    1
    60    33    56    1
    61    33    57    1
@<TRIPOS>SUBSTRUCTURE
     1 ZINC000477589488        1 TEMP              0 ****  ****    0 ROOT


##########                                Name:    ZINC000970996691
##########                DOCK_Rotatable_Bonds:                   7
##########                         Heavy_Atoms:                  24
##########                    Molecular_Weight:             334.462
##########                DOCK_Rotatable_Bonds:                   7
##########                       Formal_Charge:          -0.0199999
##########                     HBond_Acceptors:                   6
##########                        HBond_Donors:                   0
##########                         Heavy_Atoms:                  24
##########                          Grid_Score:          -32.315163
##########                     Grid_vdw_energy:          -31.755861
##########                      Grid_es_energy:           -0.559301
##########           Internal_energy_repulsive:           10.330603

@<TRIPOS>MOLECULE
ZINC000970996691
 54 56 1 0 0
SMALL
USER_CHARGES


@<TRIPOS>ATOM
      1 C1         -7.9414    0.9953   64.6068 C.3     1  ZINC000970996691   -0.1500
      2 C2         -8.2669    1.1051   63.1160 C.3     1  ZINC000970996691   -0.1200
      3 C3         -8.0496   -0.2528   62.4451 C.3     1  ZINC000970996691   -0.0300
      4 C4         -8.3285   -0.1340   60.9690 C.2     1  ZINC000970996691    0.1800
      5 N5         -9.1810    0.6828   60.3984 N.2     1  ZINC000970996691   -0.4700
      6 C6         -9.0903    0.4373   59.0792 C.2     1  ZINC000970996691    0.1800
      7 C7         -9.8728    1.1224   57.9886 C.3     1  ZINC000970996691    0.1500
      8 N8         -9.8117    0.3164   56.7620 N.3     1  ZINC000970996691   -0.5200
      9 C9        -11.1420   -0.1889   56.3972 C.3     1  ZINC000970996691    0.0200
     10 C10        -9.2186    1.0825   55.6577 C.3     1  ZINC000970996691    0.0700
     11 H11        -9.8224    1.9595   55.4249 H       1  ZINC000970996691    0.0600
     12 C12        -7.7558    1.4848   55.9826 C.3     1  ZINC000970996691   -0.1300
     13 C13        -7.1169    1.6240   54.5848 C.3     1  ZINC000970996691    0.1000
     14 N14        -7.9320    0.8325   53.6516 N.am    1  ZINC000970996691   -0.6200
     15 C15        -7.7150    0.7117   52.3269 C.2     1  ZINC000970996691    0.5300
     16 O16        -8.4552    0.0291   51.6509 O.2     1  ZINC000970996691   -0.5300
     17 C17        -6.5525    1.4249   51.6858 C.3     1  ZINC000970996691   -0.1000
     18 C18        -6.0460    0.6073   50.4959 C.3     1  ZINC000970996691   -0.1100
     19 C19        -4.8657    1.3314   49.8450 C.3     1  ZINC000970996691   -0.1200
     20 C20        -5.3179    2.7104   49.3606 C.3     1  ZINC000970996691   -0.1200
     21 C21        -5.8245    3.5282   50.5504 C.3     1  ZINC000970996691   -0.1200
     22 C22        -7.0047    2.8040   51.2013 C.3     1  ZINC000970996691   -0.1000
     23 C23        -9.0263    0.1921   54.4047 C.3     1  ZINC000970996691    0.1200
     24 N24        -8.2037   -0.4989   58.9177 N.2     1  ZINC000970996691   -0.3800
     25 O25        -7.7498   -0.8368   59.9906 O.3     1  ZINC000970996691    0.0800
     26 H26        -8.5941    0.2538   65.0676 H       1  ZINC000970996691    0.0600
     27 H27        -6.9019    0.6911   64.7304 H       1  ZINC000970996691    0.0600
     28 H28        -8.0962    1.9626   65.0848 H       1  ZINC000970996691    0.0600
     29 H29        -9.3063    1.4093   62.9925 H       1  ZINC000970996691    0.0700
     30 H30        -7.6142    1.8466   62.6552 H       1  ZINC000970996691    0.0700
     31 H31        -7.0182   -0.5713   62.5956 H       1  ZINC000970996691    0.1100
     32 H32        -8.7246   -0.9872   62.8845 H       1  ZINC000970996691    0.1000
     33 H33       -10.9115    1.2316   58.3004 H       1  ZINC000970996691    0.0700
     34 H34        -9.4452    2.1068   57.7982 H       1  ZINC000970996691    0.1100
     35 H35       -11.8164    0.6510   56.2304 H       1  ZINC000970996691    0.0300
     36 H36       -11.0680   -0.7821   55.4859 H       1  ZINC000970996691    0.0800
     37 H37       -11.5286   -0.8105   57.2050 H       1  ZINC000970996691    0.0700
     38 H38        -7.7265    2.4347   56.5164 H       1  ZINC000970996691    0.0800
     39 H39        -7.2593    0.7028   56.5575 H       1  ZINC000970996691    0.0900
     40 H40        -7.1158    2.6705   54.2803 H       1  ZINC000970996691    0.0700
     41 H41        -6.0969    1.2400   54.6034 H       1  ZINC000970996691    0.0700
     42 H42        -5.7506    1.5408   52.4148 H       1  ZINC000970996691    0.0900
     43 H43        -5.7238   -0.3752   50.8411 H       1  ZINC000970996691    0.0700
     44 H44        -6.8479    0.4914   49.7669 H       1  ZINC000970996691    0.0700
     45 H45        -4.0638    1.4474   50.5740 H       1  ZINC000970996691    0.0600
     46 H46        -4.5048    0.7489   48.9974 H       1  ZINC000970996691    0.0700
     47 H47        -4.4771    3.2264   48.8969 H       1  ZINC000970996691    0.0600
     48 H48        -6.1199    2.5945   48.6316 H       1  ZINC000970996691    0.0600
     49 H49        -5.0225    3.6441   51.2794 H       1  ZINC000970996691    0.0600
     50 H50        -6.1466    4.5106   50.2053 H       1  ZINC000970996691    0.0700
     51 H51        -7.8067    2.6881   50.4723 H       1  ZINC000970996691    0.0800
     52 H52        -7.3656    3.3865   52.0490 H       1  ZINC000970996691    0.0600
     53 H53        -8.7438   -0.8189   54.6983 H       1  ZINC000970996691    0.0800
     54 H54        -9.9379    0.1739   53.8074 H       1  ZINC000970996691    0.0800
@<TRIPOS>BOND
     1     1     2    1
     2     1    26    1
     3     1    27    1
     4     1    28    1
     5     2     3    1
     6     2    29    1
     7     2    30    1
     8     3     4    1
     9     3    31    1
    10     3    32    1
    11     4    25    1
    12     4     5    2
    13     5     6    1
    14     6     7    1
    15     6    24    2
    16     7     8    1
    17     7    33    1
    18     7    34    1
    19     8     9    1
    20     8    10    1
    21     9    35    1
    22     9    36    1
    23     9    37    1
    24    10    11    1
    25    10    23    1
    26    10    12    1
    27    12    13    1
    28    12    38    1
    29    12    39    1
    30    13    14    1
    31    13    40    1
    32    13    41    1
    33    14    15   am
    34    14    23    1
    35    15    16    2
    36    15    17    1
    37    17    22    1
    38    17    18    1
    39    17    42    1
    40    18    19    1
    41    18    43    1
    42    18    44    1
    43    19    20    1
    44    19    45    1
    45    19    46    1
    46    20    21    1
    47    20    47    1
    48    20    48    1
    49    21    22    1
    50    21    49    1
    51    21    50    1
    52    22    51    1
    53    22    52    1
    54    23    53    1
    55    23    54    1
    56    24    25    1
@<TRIPOS>SUBSTRUCTURE
     1 ZINC000970996691        1 TEMP              0 ****  ****    0 ROOT


##########                                Name:    ZINC000481050680
##########                DOCK_Rotatable_Bonds:                   7
##########                         Heavy_Atoms:                  29
##########                    Molecular_Weight:              412.46
##########                DOCK_Rotatable_Bonds:                   7
##########                       Formal_Charge:          -0.0199997
##########                     HBond_Acceptors:                   7
##########                        HBond_Donors:                   1
##########                         Heavy_Atoms:                  29
##########                          Grid_Score:          -32.303242
##########                     Grid_vdw_energy:          -31.632021
##########                      Grid_es_energy:           -0.671220
##########           Internal_energy_repulsive:           15.501784

@<TRIPOS>MOLECULE
ZINC000481050680
 47 49 1 0 0
SMALL
USER_CHARGES


@<TRIPOS>ATOM
      1 N1        -12.2064    0.6159   52.7046 N.1     1  ZINC000481050680   -0.3900
      2 C2        -11.1009    0.8110   52.5310 C.1     1  ZINC000481050680    0.2500
      3 C3         -9.7072    1.0569   52.3123 C.ar    1  ZINC000481050680    0.0200
      4 C4         -9.2552    2.3537   52.0609 C.ar    1  ZINC000481050680   -0.0800
      5 C5         -7.9112    2.5851   51.8514 C.ar    1  ZINC000481050680   -0.0800
      6 C6         -7.0109    1.5360   51.8896 C.ar    1  ZINC000481050680   -0.1000
      7 C7         -5.5446    1.7969   51.6597 C.3     1  ZINC000481050680   -0.5900
      8 S8         -5.1456    1.5094   49.9137 S.o2    1  ZINC000481050680    2.6000
      9 O9         -4.3515    0.3399   49.7696 O.2     1  ZINC000481050680   -0.9300
     10 O10        -6.2902    1.7228   49.0990 O.2     1  ZINC000481050680   -0.9400
     11 N11        -4.1230    2.7491   49.5139 N.am    1  ZINC000481050680   -1.1100
     12 C12        -2.8528    2.9096   50.2260 C.3     1  ZINC000481050680    0.2100
     13 H13        -2.8468    2.2679   51.1071 H       1  ZINC000481050680    0.1000
     14 C14        -2.6904    4.3688   50.6567 C.3     1  ZINC000481050680   -0.0800
     15 C15        -2.0607    4.4216   52.0247 C.ar    1  ZINC000481050680   -0.0900
     16 C16        -2.5996    3.6846   53.0626 C.ar    1  ZINC000481050680   -0.1200
     17 C17        -2.0221    3.7330   54.3176 C.ar    1  ZINC000481050680   -0.1200
     18 C18        -0.9053    4.5183   54.5345 C.ar    1  ZINC000481050680   -0.1200
     19 C19        -0.3659    5.2548   53.4965 C.ar    1  ZINC000481050680   -0.1200
     20 C20        -0.9409    5.2029   52.2405 C.ar    1  ZINC000481050680   -0.1200
     21 C21        -1.7149    2.5246   49.3164 C.ar    1  ZINC000481050680   -0.1300
     22 C22        -1.9374    2.3604   47.9625 C.ar    1  ZINC000481050680   -0.0700
     23 C23        -0.8933    2.0070   47.1276 C.ar    1  ZINC000481050680   -0.1300
     24 C24         0.3738    1.8173   47.6462 C.ar    1  ZINC000481050680   -0.0900
     25 C25         0.5986    1.9805   49.0001 C.ar    1  ZINC000481050680   -0.1500
     26 C26        -0.4445    2.3407   49.8361 C.ar    1  ZINC000481050680    0.1100
     27 F27        -0.2258    2.5005   51.1595 F       1  ZINC000481050680   -0.1400
     28 C28        -7.4514    0.2457   52.1390 C.ar    1  ZINC000481050680    0.1200
     29 F29        -6.5660   -0.7741   52.1754 F       1  ZINC000481050680   -0.1200
     30 C30        -8.7939    0.0016   52.3553 C.ar    1  ZINC000481050680   -0.1000
     31 H31        -9.9565    3.1745   52.0303 H       1  ZINC000481050680    0.1500
     32 H32        -7.5614    3.5881   51.6565 H       1  ZINC000481050680    0.1500
     33 H33        -5.3142    2.8301   51.9197 H       1  ZINC000481050680    0.1500
     34 H34        -4.9540    1.1252   52.2828 H       1  ZINC000481050680    0.1500
     35 H35        -4.3651    3.3691   48.8082 H       1  ZINC000481050680    0.4200
     36 H36        -2.0524    4.8893   49.9426 H       1  ZINC000481050680    0.0900
     37 H37        -3.6682    4.8493   50.6879 H       1  ZINC000481050680    0.0900
     38 H38        -3.4721    3.0710   52.8931 H       1  ZINC000481050680    0.1200
     39 H39        -2.4435    3.1577   55.1286 H       1  ZINC000481050680    0.1200
     40 H40        -0.4545    4.5568   55.5153 H       1  ZINC000481050680    0.1200
     41 H41         0.5064    5.8686   53.6661 H       1  ZINC000481050680    0.1200
     42 H42        -0.5195    5.7783   51.4295 H       1  ZINC000481050680    0.1200
     43 H43        -2.9272    2.5077   47.5564 H       1  ZINC000481050680    0.1300
     44 H44        -1.0682    1.8790   46.0696 H       1  ZINC000481050680    0.1300
     45 H45         1.1885    1.5410   46.9931 H       1  ZINC000481050680    0.1300
     46 H46         1.5888    1.8315   49.4051 H       1  ZINC000481050680    0.1400
     47 H47        -9.1371   -1.0037   52.5499 H       1  ZINC000481050680    0.1600
@<TRIPOS>BOND
     1     1     2    3
     2     2     3    1
     3     3    30   ar
     4     3     4   ar
     5     4     5   ar
     6     4    31    1
     7     5     6   ar
     8     5    32    1
     9     6     7    1
    10     6    28   ar
    11     7     8    1
    12     7    33    1
    13     7    34    1
    14     8     9    2
    15     8    10    2
    16     8    11   am
    17    11    12    1
    18    11    35    1
    19    12    13    1
    20    12    14    1
    21    12    21    1
    22    14    15    1
    23    14    36    1
    24    14    37    1
    25    15    20   ar
    26    15    16   ar
    27    16    17   ar
    28    16    38    1
    29    17    18   ar
    30    17    39    1
    31    18    19   ar
    32    18    40    1
    33    19    20   ar
    34    19    41    1
    35    20    42    1
    36    21    26   ar
    37    21    22   ar
    38    22    23   ar
    39    22    43    1
    40    23    24   ar
    41    23    44    1
    42    24    25   ar
    43    24    45    1
    44    25    26   ar
    45    25    46    1
    46    26    27    1
    47    28    29    1
    48    28    30   ar
    49    30    47    1
@<TRIPOS>SUBSTRUCTURE
     1 ZINC000481050680        1 TEMP              0 ****  ****    0 ROOT


##########                                Name:    ZINC000186316242
##########                DOCK_Rotatable_Bonds:                   7
##########                         Heavy_Atoms:                  28
##########                    Molecular_Weight:             392.525
##########                DOCK_Rotatable_Bonds:                   7
##########                       Formal_Charge:         -0.00999981
##########                     HBond_Acceptors:                   6
##########                        HBond_Donors:                   0
##########                         Heavy_Atoms:                  28
##########                          Grid_Score:          -32.298172
##########                     Grid_vdw_energy:          -33.123932
##########                      Grid_es_energy:            0.825762
##########           Internal_energy_repulsive:           21.213774

@<TRIPOS>MOLECULE
ZINC000186316242
 52 55 1 0 0
SMALL
USER_CHARGES


@<TRIPOS>ATOM
      1 C1         -9.5048   -0.2698   54.0112 C.3     1  ZINC000186316242   -0.1500
      2 C2         -9.5115    1.1623   53.4728 C.3     1  ZINC000186316242    0.1000
      3 N3         -8.1546    1.5385   53.0686 N.am    1  ZINC000186316242   -0.5900
      4 C4         -7.3701    2.2388   53.9115 C.2     1  ZINC000186316242    0.5900
      5 O5         -6.2436    2.5512   53.5759 O.2     1  ZINC000186316242   -0.5000
      6 C6         -7.8771    2.6260   55.2396 C.2     1  ZINC000186316242    0.0100
      7 C7         -8.3978    3.8595   55.4949 C.2     1  ZINC000186316242   -0.2100
      8 S8         -8.8762    3.9330   57.1352 S.3     1  ZINC000186316242    0.2000
      9 C9         -8.3400    2.2758   57.3857 C.2     1  ZINC000186316242    0.0700
     10 C10        -8.4219    1.5366   58.6643 C.ar    1  ZINC000186316242    0.1900
     11 C11        -7.7394    0.3294   58.8104 C.ar    1  ZINC000186316242   -0.1500
     12 C12        -7.8255   -0.3504   60.0132 C.ar    1  ZINC000186316242   -0.0700
     13 C13        -8.5914    0.1990   61.0313 C.ar    1  ZINC000186316242   -0.1600
     14 C14        -9.2425    1.4009   60.8182 C.ar    1  ZINC000186316242    0.1100
     15 N15        -9.1405    2.0305   59.6662 N.ar    1  ZINC000186316242   -0.4500
     16 N16        -7.8667    1.8000   56.2751 N.2     1  ZINC000186316242   -0.3900
     17 C17        -7.6504    1.1536   51.7480 C.3     1  ZINC000186316242    0.1400
     18 H18        -8.4364    0.6665   51.1709 H       1  ZINC000186316242    0.1000
     19 C19        -6.4305    0.2150   51.8921 C.3     1  ZINC000186316242   -0.1300
     20 C20        -5.4884    0.6950   50.7596 C.3     1  ZINC000186316242    0.0400
     21 N21        -5.6773    2.1682   50.7618 N.3     1  ZINC000186316242   -0.4900
     22 C22        -5.2565    2.7549   49.4825 C.3     1  ZINC000186316242    0.0800
     23 C23        -3.7517    2.7576   49.4019 C.ar    1  ZINC000186316242   -0.0700
     24 C24        -3.0017    3.1504   50.4947 C.ar    1  ZINC000186316242   -0.1000
     25 C25        -1.6213    3.1529   50.4207 C.ar    1  ZINC000186316242   -0.1200
     26 C26        -0.9909    2.7623   49.2542 C.ar    1  ZINC000186316242   -0.1200
     27 C27        -1.7409    2.3686   48.1617 C.ar    1  ZINC000186316242   -0.1200
     28 C28        -3.1212    2.3620   48.2370 C.ar    1  ZINC000186316242   -0.1100
     29 C29        -7.1231    2.3897   50.9960 C.3     1  ZINC000186316242    0.0400
     30 H30       -10.5144   -0.5497   54.3119 H       1  ZINC000186316242    0.0700
     31 H31        -9.1560   -0.9488   53.2332 H       1  ZINC000186316242    0.0500
     32 H32        -8.8391   -0.3311   54.8721 H       1  ZINC000186316242    0.0400
     33 H33       -10.1771    1.2236   52.6118 H       1  ZINC000186316242    0.1200
     34 H34        -9.8603    1.8414   54.2508 H       1  ZINC000186316242    0.0700
     35 H35        -8.4930    4.6610   54.7773 H       1  ZINC000186316242    0.1900
     36 H36        -7.1523   -0.0697   57.9965 H       1  ZINC000186316242    0.1400
     37 H37        -7.3083   -1.2877   60.1558 H       1  ZINC000186316242    0.1400
     38 H38        -8.6788   -0.3072   61.9813 H       1  ZINC000186316242    0.1400
     39 H39        -9.8398    1.8307   61.6088 H       1  ZINC000186316242    0.1600
     40 H40        -5.9587    0.3425   52.8664 H       1  ZINC000186316242    0.0900
     41 H41        -6.7224   -0.8237   51.7367 H       1  ZINC000186316242    0.0700
     42 H42        -4.4532    0.4395   50.9861 H       1  ZINC000186316242    0.0800
     43 H43        -5.7899    0.2699   49.8023 H       1  ZINC000186316242    0.0400
     44 H44        -5.6633    2.1652   48.6611 H       1  ZINC000186316242    0.0400
     45 H45        -5.6260    3.7781   49.4129 H       1  ZINC000186316242    0.0800
     46 H46        -3.4942    3.4557   51.4060 H       1  ZINC000186316242    0.1200
     47 H47        -1.0354    3.4605   51.2742 H       1  ZINC000186316242    0.1200
     48 H48         0.0875    2.7649   49.1961 H       1  ZINC000186316242    0.1200
     49 H49        -1.2485    2.0636   47.2502 H       1  ZINC000186316242    0.1200
     50 H50        -3.7072    2.0544   47.3835 H       1  ZINC000186316242    0.1200
     51 H51        -7.6415    2.4964   50.0432 H       1  ZINC000186316242    0.0500
     52 H52        -7.2684    3.2832   51.6030 H       1  ZINC000186316242    0.0800
@<TRIPOS>BOND
     1     1     2    1
     2     1    30    1
     3     1    31    1
     4     1    32    1
     5     2     3    1
     6     2    33    1
     7     2    34    1
     8     3     4   am
     9     3    17    1
    10     4     5    2
    11     4     6    1
    12     6    16    1
    13     6     7    2
    14     7     8    1
    15     7    35    1
    16     8     9    1
    17     9    10    1
    18     9    16    2
    19    10    15   ar
    20    10    11   ar
    21    11    12   ar
    22    11    36    1
    23    12    13   ar
    24    12    37    1
    25    13    14   ar
    26    13    38    1
    27    14    15   ar
    28    14    39    1
    29    17    18    1
    30    17    29    1
    31    17    19    1
    32    19    20    1
    33    19    40    1
    34    19    41    1
    35    20    21    1
    36    20    42    1
    37    20    43    1
    38    21    22    1
    39    21    29    1
    40    22    23    1
    41    22    44    1
    42    22    45    1
    43    23    28   ar
    44    23    24   ar
    45    24    25   ar
    46    24    46    1
    47    25    26   ar
    48    25    47    1
    49    26    27   ar
    50    26    48    1
    51    27    28   ar
    52    27    49    1
    53    28    50    1
    54    29    51    1
    55    29    52    1
@<TRIPOS>SUBSTRUCTURE
     1 ZINC000186316242        1 TEMP              0 ****  ****    0 ROOT


##########                                Name:    ZINC000193795672
##########                DOCK_Rotatable_Bonds:                  10
##########                         Heavy_Atoms:                  23
##########                    Molecular_Weight:              332.47
##########                DOCK_Rotatable_Bonds:                  10
##########                       Formal_Charge:        -2.98023e-07
##########                     HBond_Acceptors:                   6
##########                        HBond_Donors:                   3
##########                         Heavy_Atoms:                  23
##########                          Grid_Score:          -32.287785
##########                     Grid_vdw_energy:          -32.059547
##########                      Grid_es_energy:           -0.228236
##########           Internal_energy_repulsive:            9.242935

@<TRIPOS>MOLECULE
ZINC000193795672
 47 48 1 0 0
SMALL
USER_CHARGES


@<TRIPOS>ATOM
      1 C1          1.5212    2.0897   46.2761 C.3     1  <0>        -0.1000
      2 C2          0.3205    2.2684   47.1691 C.ar    1  <0>        -0.2000
      3 C3          0.4104    3.0418   48.3186 C.ar    1  <0>        -0.0300
      4 C4         -0.7153    3.1806   49.1107 C.ar    1  <0>        -0.2400
      5 C5         -1.8923    2.5443   48.7309 C.ar    1  <0>         0.4000
      6 N6         -3.0309    2.6753   49.5175 N.pl3   1  <0>        -0.7300
      7 C7         -4.1684    1.7744   49.3156 C.3     1  <0>         0.1300
      8 C8         -4.7845    1.4193   50.6703 C.3     1  <0>        -0.1400
      9 C9         -5.7855    0.2761   50.4913 C.3     1  <0>         0.1400
     10 N10        -6.3711   -0.0679   51.7894 N.am    1  <0>        -0.7500
     11 C11        -7.5129    0.5243   52.1917 C.2     1  <0>         0.7100
     12 O12        -8.0579    1.3430   51.4767 O.2     1  <0>        -0.5900
     13 N13        -8.0509    0.2091   53.3866 N.am    1  <0>        -0.7400
     14 C14        -9.2911    0.8541   53.8247 C.3     1  <0>         0.1700
     15 H15        -9.3164    1.8801   53.4574 H       1  <0>         0.0900
     16 C16       -10.4905    0.0837   53.2690 C.3     1  <0>        -0.1700
     17 C17        -9.3514    0.8581   55.3536 C.3     1  <0>        -0.0600
     18 C18        -8.1654    1.6095   55.9011 C.2     1  <0>        -0.1700
     19 C19        -7.5620    2.6366   55.3009 C.2     1  <0>        -0.1400
     20 C20        -6.4900    3.1702   55.9953 C.2     1  <0>        -0.1300
     21 C21        -6.2229    2.5764   57.1595 C.2     1  <0>        -0.2100
     22 S22        -7.3698    1.2712   57.4328 S.3     1  <0>         0.0900
     23 N23        -1.9381    1.8152   47.6264 N.ar    1  <0>        -0.5400
     24 C24        -0.8816    1.6693   46.8495 C.ar    1  <0>         0.1500
     25 H25         1.5371    2.8806   45.5262 H       1  <0>         0.0700
     26 H26         2.4303    2.1389   46.8753 H       1  <0>         0.0600
     27 H27         1.4645    1.1205   45.7806 H       1  <0>         0.0700
     28 H28         1.3384    3.5239   48.5886 H       1  <0>         0.1300
     29 H29        -0.6805    3.7747   50.0120 H       1  <0>         0.1300
     30 H30        -3.0722    3.3632   50.2002 H       1  <0>         0.4000
     31 H31        -4.9163    2.2673   48.6944 H       1  <0>         0.0700
     32 H32        -3.8281    0.8645   48.8215 H       1  <0>         0.0700
     33 H33        -3.9972    1.1087   51.3572 H       1  <0>         0.0800
     34 H34        -5.2975    2.2913   51.0759 H       1  <0>         0.0800
     35 H35        -6.5750    0.5881   49.8077 H       1  <0>         0.0700
     36 H36        -5.2733   -0.5945   50.0817 H       1  <0>         0.0700
     37 H37        -5.9371   -0.7219   52.3593 H       1  <0>         0.4000
     38 H38        -7.6167   -0.4449   53.9566 H       1  <0>         0.3900
     39 H39       -10.4652   -0.9422   53.6363 H       1  <0>         0.0600
     40 H40       -11.4133    0.5637   53.5950 H       1  <0>         0.0700
     41 H41       -10.4475    0.0809   52.1799 H       1  <0>         0.0700
     42 H42       -10.2712    1.3436   55.6796 H       1  <0>         0.1000
     43 H43        -9.3324   -0.1680   55.7205 H       1  <0>         0.0800
     44 H44        -7.8852    3.0225   54.3454 H       1  <0>         0.1400
     45 H45        -5.9134    4.0039   55.6227 H       1  <0>         0.1400
     46 H46        -5.4264    2.8565   57.8330 H       1  <0>         0.1600
     47 H47        -0.9561    1.0669   45.9562 H       1  <0>         0.1500
@<TRIPOS>BOND
     1     1     2    1
     2     1    25    1
     3     1    26    1
     4     1    27    1
     5     2    24   ar
     6     2     3   ar
     7     3     4   ar
     8     3    28    1
     9     4     5   ar
    10     4    29    1
    11     5     6    1
    12     5    23   ar
    13     6     7    1
    14     6    30    1
    15     7     8    1
    16     7    31    1
    17     7    32    1
    18     8     9    1
    19     8    33    1
    20     8    34    1
    21     9    10    1
    22     9    35    1
    23     9    36    1
    24    10    11   am
    25    10    37    1
    26    11    12    2
    27    11    13   am
    28    13    14    1
    29    13    38    1
    30    14    15    1
    31    14    16    1
    32    14    17    1
    33    16    39    1
    34    16    40    1
    35    16    41    1
    36    17    18    1
    37    17    42    1
    38    17    43    1
    39    18    22    1
    40    18    19    2
    41    19    20    1
    42    19    44    1
    43    20    21    2
    44    20    45    1
    45    21    22    1
    46    21    46    1
    47    23    24   ar
    48    24    47    1
@<TRIPOS>SUBSTRUCTURE
     1 <0>         1 TEMP              0 ****  ****    0 ROOT


##########                                Name:    ZINC000981048968
##########                DOCK_Rotatable_Bonds:                   7
##########                         Heavy_Atoms:                  25
##########                    Molecular_Weight:             344.414
##########                DOCK_Rotatable_Bonds:                   7
##########                       Formal_Charge:                0.02
##########                     HBond_Acceptors:                   7
##########                        HBond_Donors:                   2
##########                         Heavy_Atoms:                  25
##########                          Grid_Score:          -32.283398
##########                     Grid_vdw_energy:          -32.010727
##########                      Grid_es_energy:           -0.272671
##########           Internal_energy_repulsive:            3.988767

@<TRIPOS>MOLECULE
ZINC000981048968
 49 52 1 0 0
SMALL
USER_CHARGES


@<TRIPOS>ATOM
      1 C1          2.0271    2.6137   50.5668 C.3     1  ZINC000981048968   -0.0800
      2 C2          0.8029    2.4943   49.6961 C.2     1  ZINC000981048968   -0.0100
      3 C3         -0.4589    2.3843   50.1389 C.2     1  ZINC000981048968   -0.1600
      4 C4         -1.3024    2.2969   48.9378 C.2     1  ZINC000981048968   -0.2300
      5 C5         -2.7693    2.1647   48.8872 C.2     1  ZINC000981048968    0.5900
      6 O6         -3.3340    2.0627   47.8150 O.2     1  ZINC000981048968   -0.5300
      7 N7         -3.4851    2.1568   50.0292 N.am    1  ZINC000981048968   -0.7300
      8 C8         -4.9435    2.0270   49.9788 C.3     1  ZINC000981048968    0.1500
      9 H9         -5.2244    1.4146   49.1220 H       1  ZINC000981048968    0.0900
     10 C10        -5.5744    3.4143   49.8428 C.3     1  ZINC000981048968   -0.1300
     11 C11        -7.0975    3.2789   49.7901 C.3     1  ZINC000981048968   -0.1200
     12 C12        -7.5954    2.6160   51.0761 C.3     1  ZINC000981048968   -0.1100
     13 C13        -6.9644    1.2288   51.2121 C.3     1  ZINC000981048968    0.1000
     14 H14        -7.2453    0.6163   50.3552 H       1  ZINC000981048968    0.0500
     15 N15        -7.4425    0.5924   52.4467 N.3     1  ZINC000981048968   -0.6800
     16 C16        -8.6339   -0.2275   52.1892 C.3     1  ZINC000981048968    0.1500
     17 C17        -9.5469   -0.1770   53.3870 C.2     1  ZINC000981048968    0.1800
     18 N18       -10.5059    0.6765   53.5877 N.2     1  ZINC000981048968   -0.3800
     19 O19       -11.0548    0.4503   54.6455 O.3     1  ZINC000981048968    0.0800
     20 C20       -10.4808   -0.6010   55.2380 C.2     1  ZINC000981048968    0.2100
     21 C21       -10.8649   -1.2040   56.5646 C.3     1  ZINC000981048968   -0.0800
     22 C22       -11.9922   -2.2385   56.5705 C.3     1  ZINC000981048968   -0.1600
     23 C23       -10.5444   -2.6833   56.7876 C.3     1  ZINC000981048968   -0.1500
     24 N24        -9.5225   -1.0108   54.4422 N.2     1  ZINC000981048968   -0.4600
     25 C25        -5.4414    1.3642   51.2647 C.3     1  ZINC000981048968   -0.1300
     26 C26        -0.4435    2.3649   47.8802 C.2     1  ZINC000981048968    0.0200
     27 O27         0.8003    2.4868   48.3540 O.3     1  ZINC000981048968   -0.1700
     28 H28         2.9139    2.6929   49.9380 H       1  ZINC000981048968    0.0800
     29 H29         1.9437    3.5034   51.1910 H       1  ZINC000981048968    0.0900
     30 H30         2.1093    1.7311   51.2012 H       1  ZINC000981048968    0.0900
     31 H31        -0.7878    2.3637   51.1674 H       1  ZINC000981048968    0.1600
     32 H32        -3.0346    2.2369   50.8845 H       1  ZINC000981048968    0.4000
     33 H33        -5.2935    4.0268   50.6996 H       1  ZINC000981048968    0.0700
     34 H34        -5.2197    3.8865   48.9267 H       1  ZINC000981048968    0.0700
     35 H35        -7.5470    4.2672   49.6932 H       1  ZINC000981048968    0.0700
     36 H36        -7.3784    2.6664   48.9333 H       1  ZINC000981048968    0.0600
     37 H37        -7.3144    3.2285   51.9328 H       1  ZINC000981048968    0.0700
     38 H38        -8.6804    2.5195   51.0385 H       1  ZINC000981048968    0.0700
     39 H39        -6.7125    0.0445   52.8771 H       1  ZINC000981048968    0.3500
     40 H40        -9.1588    0.1589   51.3156 H       1  ZINC000981048968    0.1100
     41 H41        -8.3324   -1.2587   52.0053 H       1  ZINC000981048968    0.0600
     42 H42       -10.7886   -0.5375   57.4237 H       1  ZINC000981048968    0.1500
     43 H43       -12.6578   -2.2527   57.4335 H       1  ZINC000981048968    0.1200
     44 H44       -12.4559   -2.4829   55.6148 H       1  ZINC000981048968    0.1100
     45 H45       -10.0557   -3.2204   55.9747 H       1  ZINC000981048968    0.1000
     46 H46       -10.2577   -2.9901   57.7934 H       1  ZINC000981048968    0.1200
     47 H47        -4.9919    0.3760   51.3616 H       1  ZINC000981048968    0.0700
     48 H48        -5.1604    1.9767   52.1215 H       1  ZINC000981048968    0.0800
     49 H49        -0.7217    2.3299   46.8372 H       1  ZINC000981048968    0.2100
@<TRIPOS>BOND
     1     1     2    1
     2     1    28    1
     3     1    29    1
     4     1    30    1
     5     2    27    1
     6     2     3    2
     7     3     4    1
     8     3    31    1
     9     4     5    1
    10     4    26    2
    11     5     6    2
    12     5     7   am
    13     7     8    1
    14     7    32    1
    15     8     9    1
    16     8    25    1
    17     8    10    1
    18    10    11    1
    19    10    33    1
    20    10    34    1
    21    11    12    1
    22    11    35    1
    23    11    36    1
    24    12    13    1
    25    12    37    1
    26    12    38    1
    27    13    14    1
    28    13    15    1
    29    13    25    1
    30    15    16    1
    31    15    39    1
    32    16    17    1
    33    16    40    1
    34    16    41    1
    35    17    24    1
    36    17    18    2
    37    18    19    1
    38    19    20    1
    39    20    21    1
    40    20    24    2
    41    21    23    1
    42    21    22    1
    43    21    42    1
    44    22    23    1
    45    22    43    1
    46    22    44    1
    47    23    45    1
    48    23    46    1
    49    25    47    1
    50    25    48    1
    51    26    27    1
    52    26    49    1
@<TRIPOS>SUBSTRUCTURE
     1 ZINC000981048968        1 TEMP              0 ****  ****    0 ROOT


##########                                Name:    ZINC000439870054
##########                DOCK_Rotatable_Bonds:                   5
##########                         Heavy_Atoms:                  27
##########                    Molecular_Weight:             421.974
##########                DOCK_Rotatable_Bonds:                   5
##########                       Formal_Charge:           0.0200003
##########                     HBond_Acceptors:                   9
##########                        HBond_Donors:                   0
##########                         Heavy_Atoms:                  27
##########                          Grid_Score:          -32.265789
##########                     Grid_vdw_energy:          -32.116825
##########                      Grid_es_energy:           -0.148964
##########           Internal_energy_repulsive:           64.400002

@<TRIPOS>MOLECULE
ZINC000439870054
 47 50 1 0 0
SMALL
USER_CHARGES


@<TRIPOS>ATOM
      1 C1          0.1740    3.1251   51.4083 C.3     1  ZINC000439870054   -0.1400
      2 C2         -0.3102    3.7829   50.1147 C.3     1  ZINC000439870054    0.0000
      3 C3          0.7790    3.6690   49.0460 C.3     1  ZINC000439870054   -0.1400
      4 C4         -1.5590    3.0890   49.6350 C.2     1  ZINC000439870054    0.1900
      5 N5         -1.6406    2.2249   48.6562 N.2     1  ZINC000439870054   -0.2900
      6 N6         -2.8622    1.8360   48.5194 N.2     1  ZINC000439870054   -0.2700
      7 C7         -3.6063    2.4336   49.3981 C.2     1  ZINC000439870054    0.1600
      8 C8         -5.0951    2.3091   49.6150 C.3     1  ZINC000439870054    0.2400
      9 H9         -5.6317    2.7886   48.7963 H       1  ZINC000439870054    0.1100
     10 C10        -5.4883    0.8330   49.7028 C.3     1  ZINC000439870054   -0.1300
     11 N11        -5.4033    2.9905   50.8866 N.am    1  ZINC000439870054   -0.6300
     12 C12        -6.2499    2.4413   51.7798 C.2     1  ZINC000439870054    0.5300
     13 O13        -6.7706    1.3717   51.5435 O.2     1  ZINC000439870054   -0.4900
     14 C14        -6.5495    3.1560   53.0722 C.3     1  ZINC000439870054   -0.0700
     15 C15        -7.6612    2.4408   53.7958 C.2     1  ZINC000439870054    0.0900
     16 C16        -8.8470    2.2113   53.2243 C.2     1  ZINC000439870054   -0.2400
     17 S17        -9.8642    1.3593   54.3842 S.3     1  ZINC000439870054    0.1300
     18 C18        -8.5511    1.3987   55.5582 C.2     1  ZINC000439870054    0.1400
     19 C19        -8.6039    0.8389   56.9174 C.2     1  ZINC000439870054   -0.1300
     20 C20        -9.6471    0.1589   57.4411 C.2     1  ZINC000439870054   -0.1000
     21 C21        -9.4624   -0.2692   58.7379 C.2     1  ZINC000439870054   -0.1200
     22 C22        -8.2812    0.0532   59.2787 C.2     1  ZINC000439870054   -0.1500
     23 Cl23       -7.7759   -0.3532   60.8890 Cl      1  ZINC000439870054    0.0000
     24 S24        -7.3154    0.9443   58.1101 S.3     1  ZINC000439870054    0.2500
     25 N25        -7.5224    1.9997   55.0258 N.2     1  ZINC000439870054   -0.4400
     26 C26        -4.7598    4.2862   51.1520 C.3     1  ZINC000439870054    0.0900
     27 C27        -3.2422    4.0877   51.2425 C.3     1  ZINC000439870054    0.0900
     28 N28        -2.8008    3.2375   50.1377 N.pl3   1  ZINC000439870054   -0.4700
     29 H29         1.0773    3.6269   51.7552 H       1  ZINC000439870054    0.0700
     30 H30        -0.6019    3.2062   52.1697 H       1  ZINC000439870054    0.0500
     31 H31         0.3915    2.0734   51.2218 H       1  ZINC000439870054    0.0700
     32 H32        -0.5277    4.8345   50.3010 H       1  ZINC000439870054    0.0800
     33 H33         0.4340    4.1376   48.1243 H       1  ZINC000439870054    0.0500
     34 H34         1.6822    4.1709   49.3928 H       1  ZINC000439870054    0.0700
     35 H35         0.9964    2.6174   48.8596 H       1  ZINC000439870054    0.0700
     36 H36        -5.0807    0.4022   50.6173 H       1  ZINC000439870054    0.0600
     37 H37        -6.5749    0.7464   49.7133 H       1  ZINC000439870054    0.0900
     38 H38        -5.0895    0.2989   48.8404 H       1  ZINC000439870054    0.0700
     39 H39        -5.6566    3.1661   53.6974 H       1  ZINC000439870054    0.1100
     40 H40        -6.8551    4.1803   52.8586 H       1  ZINC000439870054    0.1200
     41 H41        -9.1331    2.4990   52.2234 H       1  ZINC000439870054    0.1800
     42 H42       -10.5542   -0.0336   56.8874 H       1  ZINC000439870054    0.1500
     43 H43       -10.2154   -0.8236   59.2783 H       1  ZINC000439870054    0.1600
     44 H44        -4.9888    4.9790   50.3423 H       1  ZINC000439870054    0.0900
     45 H45        -5.1308    4.6906   52.0938 H       1  ZINC000439870054    0.1200
     46 H46        -2.7441    5.0554   51.1820 H       1  ZINC000439870054    0.1100
     47 H47        -2.9933    3.6075   52.1889 H       1  ZINC000439870054    0.0900
@<TRIPOS>BOND
     1     1     2    1
     2     1    29    1
     3     1    30    1
     4     1    31    1
     5     2     3    1
     6     2     4    1
     7     2    32    1
     8     3    33    1
     9     3    34    1
    10     3    35    1
    11     4    28    1
    12     4     5    2
    13     5     6    1
    14     6     7    2
    15     7    28    1
    16     7     8    1
    17     8     9    1
    18     8    10    1
    19     8    11    1
    20    10    36    1
    21    10    37    1
    22    10    38    1
    23    11    12   am
    24    11    26    1
    25    12    13    2
    26    12    14    1
    27    14    15    1
    28    14    39    1
    29    14    40    1
    30    15    25    1
    31    15    16    2
    32    16    17    1
    33    16    41    1
    34    17    18    1
    35    18    19    1
    36    18    25    2
    37    19    24    1
    38    19    20    2
    39    20    21    1
    40    20    42    1
    41    21    22    2
    42    21    43    1
    43    22    23    1
    44    22    24    1
    45    26    27    1
    46    26    44    1
    47    26    45    1
    48    27    28    1
    49    27    46    1
    50    27    47    1
@<TRIPOS>SUBSTRUCTURE
     1 ZINC000439870054        1 TEMP              0 ****  ****    0 ROOT


##########                                Name:    ZINC001105194920
##########                DOCK_Rotatable_Bonds:                   8
##########                         Heavy_Atoms:                  25
##########                    Molecular_Weight:             346.392
##########                DOCK_Rotatable_Bonds:                   8
##########                       Formal_Charge:          -0.0100007
##########                     HBond_Acceptors:                  10
##########                        HBond_Donors:                   3
##########                         Heavy_Atoms:                  25
##########                          Grid_Score:          -32.226181
##########                     Grid_vdw_energy:          -32.435226
##########                      Grid_es_energy:            0.209047
##########           Internal_energy_repulsive:            8.504482

@<TRIPOS>MOLECULE
ZINC001105194920
 47 49 1 0 0
SMALL
USER_CHARGES


@<TRIPOS>ATOM
      1 C1         -2.7685    3.3093   49.2075 C.3     1  ZINC001105194920    0.0300
      2 O2         -3.8830    2.4221   49.3203 O.3     1  ZINC001105194920   -0.3900
      3 C3         -4.5005    2.4254   50.6089 C.3     1  ZINC001105194920    0.0700
      4 C4         -5.7713    1.5744   50.5676 C.3     1  ZINC001105194920    0.0900
      5 H5         -6.5192    2.0681   49.9471 H       1  ZINC001105194920    0.0900
      6 C6         -5.4461    0.2003   49.9782 C.3     1  ZINC001105194920   -0.1800
      7 N7         -6.2959    1.4110   51.9301 N.3     1  ZINC001105194920   -0.6800
      8 C8         -7.6614    0.8700   51.9071 C.3     1  ZINC001105194920    0.1400
      9 C9         -8.1914    0.7841   53.3152 C.2     1  ZINC001105194920   -0.0200
     10 C10        -7.8588    1.5831   54.3558 C.2     1  ZINC001105194920   -0.0200
     11 N11        -8.5750    1.1404   55.4151 N.pl3   1  ZINC001105194920   -0.2800
     12 C12        -8.5436    1.7022   56.7677 C.3     1  ZINC001105194920    0.1000
     13 C13        -9.6945    1.2166   57.6674 C.3     1  ZINC001105194920    0.1100
     14 N14        -8.7842    0.1283   58.0735 N.am    1  ZINC001105194920   -0.6300
     15 C15        -8.9582   -1.1158   58.5619 C.2     1  ZINC001105194920    0.6200
     16 O16        -7.9927   -1.8111   58.8120 O.2     1  ZINC001105194920   -0.5400
     17 C17       -10.3219   -1.6346   58.7933 C.ar    1  ZINC001105194920   -0.0600
     18 N18       -10.9218   -2.3745   57.8653 N.ar    1  ZINC001105194920   -0.3700
     19 C19       -12.1382   -2.8355   58.0748 C.ar    1  ZINC001105194920   -0.0200
     20 C20       -12.8000   -2.5534   59.2613 C.ar    1  ZINC001105194920    0.1500
     21 N21       -12.2172   -1.8197   60.1918 N.ar    1  ZINC001105194920   -0.5100
     22 C22       -10.9891   -1.3535   59.9970 C.ar    1  ZINC001105194920    0.4200
     23 N23       -10.3751   -0.5853   60.9689 N.pl3   1  ZINC001105194920   -0.8100
     24 C24        -7.6070    0.9493   57.7299 C.3     1  ZINC001105194920    0.1100
     25 N25        -9.2889    0.1410   55.0299 N.2     1  ZINC001105194920   -0.0800
     26 N26        -9.0873   -0.0932   53.7811 N.2     1  ZINC001105194920   -0.2600
     27 H27        -2.0041    3.0262   49.9312 H       1  ZINC001105194920    0.0400
     28 H28        -2.3559    3.2483   48.2005 H       1  ZINC001105194920    0.0800
     29 H29        -3.0954    4.3302   49.4049 H       1  ZINC001105194920    0.0400
     30 H30        -3.8099    2.0117   51.3438 H       1  ZINC001105194920    0.0600
     31 H31        -4.7568    3.4478   50.8864 H       1  ZINC001105194920    0.0500
     32 H32        -4.6981   -0.2933   50.5988 H       1  ZINC001105194920    0.0700
     33 H33        -6.3514   -0.4059   49.9488 H       1  ZINC001105194920    0.0500
     34 H34        -5.0569    0.3216   48.9674 H       1  ZINC001105194920    0.0600
     35 H35        -5.6858    0.8297   52.4851 H       1  ZINC001105194920    0.3500
     36 H36        -8.3020    1.5254   51.3171 H       1  ZINC001105194920    0.0900
     37 H37        -7.6506   -0.1247   51.4617 H       1  ZINC001105194920    0.0500
     38 H38        -7.1616    2.4078   54.3434 H       1  ZINC001105194920    0.1800
     39 H39        -8.4041    2.7832   56.7757 H       1  ZINC001105194920    0.1500
     40 H40        -9.9422    1.9063   58.4743 H       1  ZINC001105194920    0.1200
     41 H41       -10.5696    0.8743   57.1150 H       1  ZINC001105194920    0.1000
     42 H42       -12.6226   -3.4357   57.3190 H       1  ZINC001105194920    0.1800
     43 H43       -13.7969   -2.9356   59.4244 H       1  ZINC001105194920    0.1800
     44 H44       -10.8088   -0.4499   61.8259 H       1  ZINC001105194920    0.4000
     45 H45        -9.5105   -0.1817   60.7938 H       1  ZINC001105194920    0.4300
     46 H46        -6.8154    0.3935   57.2273 H       1  ZINC001105194920    0.1100
     47 H47        -7.2415    1.5603   58.5552 H       1  ZINC001105194920    0.1200
@<TRIPOS>BOND
     1     1     2    1
     2     1    27    1
     3     1    28    1
     4     1    29    1
     5     2     3    1
     6     3     4    1
     7     3    30    1
     8     3    31    1
     9     4     5    1
    10     4     6    1
    11     4     7    1
    12     6    32    1
    13     6    33    1
    14     6    34    1
    15     7     8    1
    16     7    35    1
    17     8     9    1
    18     8    36    1
    19     8    37    1
    20     9    26    1
    21     9    10    2
    22    10    11    1
    23    10    38    1
    24    11    12    1
    25    11    25    1
    26    12    24    1
    27    12    13    1
    28    12    39    1
    29    13    14    1
    30    13    40    1
    31    13    41    1
    32    14    15   am
    33    14    24    1
    34    15    16    2
    35    15    17    1
    36    17    22   ar
    37    17    18   ar
    38    18    19   ar
    39    19    20   ar
    40    19    42    1
    41    20    21   ar
    42    20    43    1
    43    21    22   ar
    44    22    23    1
    45    23    44    1
    46    23    45    1
    47    24    46    1
    48    24    47    1
    49    25    26    2
@<TRIPOS>SUBSTRUCTURE
     1 ZINC001105194920        1 TEMP              0 ****  ****    0 ROOT


##########                                Name:    ZINC000963156778
##########                DOCK_Rotatable_Bonds:                   6
##########                         Heavy_Atoms:                  24
##########                    Molecular_Weight:             349.414
##########                DOCK_Rotatable_Bonds:                   6
##########                       Formal_Charge:         -0.00999984
##########                     HBond_Acceptors:                   9
##########                        HBond_Donors:                   2
##########                         Heavy_Atoms:                  24
##########                          Grid_Score:          -32.138439
##########                     Grid_vdw_energy:          -30.728045
##########                      Grid_es_energy:           -1.410396
##########           Internal_energy_repulsive:            8.321649

@<TRIPOS>MOLECULE
ZINC000963156778
 43 46 1 0 0
SMALL
USER_CHARGES


@<TRIPOS>ATOM
      1 C1         -8.2621    3.1173   61.9068 C.3     1  ZINC000963156778   -0.0800
      2 C2         -8.4523    1.6746   62.2988 C.2     1  ZINC000963156778    0.0300
      3 C3         -9.1516    0.7807   61.5615 C.2     1  ZINC000963156778   -0.2600
      4 C4         -9.8598    1.0127   60.2516 C.3     1  ZINC000963156778    0.1300
      5 N5         -8.9915    1.7889   59.3563 N.3     1  ZINC000963156778   -0.5000
      6 C6         -9.6884    2.1083   58.0838 C.3     1  ZINC000963156778    0.0600
      7 C7         -8.5523    2.4130   57.0840 C.3     1  ZINC000963156778   -0.1700
      8 H8         -8.4866    3.4263   56.6877 H       1  ZINC000963156778    0.1200
      9 C9         -7.3173    1.6780   57.6444 C.3     1  ZINC000963156778   -0.1700
     10 H10        -6.3295    2.1388   57.6523 H       1  ZINC000963156778    0.1200
     11 C11        -7.8112    0.9910   58.9357 C.3     1  ZINC000963156778    0.0600
     12 C12        -7.9671    1.2498   56.2807 C.3     1  ZINC000963156778    0.1200
     13 H13        -8.5264    0.3144   56.2625 H       1  ZINC000963156778    0.1400
     14 N14        -7.2345    1.5710   55.0533 N.am    1  ZINC000963156778   -0.7000
     15 C15        -7.8674    1.5428   53.8638 C.2     1  ZINC000963156778    0.5100
     16 O16        -9.0438    1.2528   53.8096 O.2     1  ZINC000963156778   -0.5000
     17 C17        -7.1133    1.8714   52.6010 C.3     1  ZINC000963156778   -0.1300
     18 C18        -6.2784    0.6618   52.1762 C.3     1  ZINC000963156778   -0.1100
     19 H19        -5.9824    0.0766   53.0469 H       1  ZINC000963156778    0.1300
     20 C20        -5.0381    1.1119   51.3776 C.3     1  ZINC000963156778   -0.1600
     21 C21        -5.2330    0.4633   50.0245 C.2     1  ZINC000963156778    0.5300
     22 O22        -4.4751    0.5608   49.0834 O.2     1  ZINC000963156778   -0.4800
     23 N23        -6.3748   -0.2357   50.0315 N.am    1  ZINC000963156778   -0.6900
     24 C24        -7.0453   -0.1960   51.1936 C.2     1  ZINC000963156778    0.5200
     25 O25        -8.0971   -0.7559   51.4169 O.2     1  ZINC000963156778   -0.4500
     26 S26        -9.0460   -0.6821   62.4623 S.3     1  ZINC000963156778    0.4500
     27 N27        -8.1824   -0.0916   63.6264 N.2     1  ZINC000963156778   -0.2900
     28 N28        -7.9517    1.1415   63.3946 N.2     1  ZINC000963156778   -0.2400
     29 H29        -7.3618    3.2132   61.2998 H       1  ZINC000963156778    0.0900
     30 H30        -9.1249    3.4546   61.3325 H       1  ZINC000963156778    0.0800
     31 H31        -8.1619    3.7276   62.8044 H       1  ZINC000963156778    0.0800
     32 H32       -10.0931    0.0533   59.7898 H       1  ZINC000963156778    0.1000
     33 H33       -10.7830    1.5639   60.4304 H       1  ZINC000963156778    0.0700
     34 H34       -10.2732    1.2529   57.7456 H       1  ZINC000963156778    0.0600
     35 H35       -10.3284    2.9816   58.2097 H       1  ZINC000963156778    0.0800
     36 H36        -7.0376    1.0231   59.7030 H       1  ZINC000963156778    0.1000
     37 H37        -8.1021   -0.0392   58.7308 H       1  ZINC000963156778    0.0500
     38 H38        -6.2939    1.8039   55.0969 H       1  ZINC000963156778    0.4000
     39 H39        -7.8205    2.1207   51.8100 H       1  ZINC000963156778    0.1000
     40 H40        -6.4555    2.7217   52.7817 H       1  ZINC000963156778    0.1200
     41 H41        -5.0160    2.1976   51.2830 H       1  ZINC000963156778    0.1200
     42 H42        -4.1253    0.7482   51.8495 H       1  ZINC000963156778    0.1300
     43 H43        -6.6914   -0.7316   49.2604 H       1  ZINC000963156778    0.4200
@<TRIPOS>BOND
     1     1     2    1
     2     1    29    1
     3     1    30    1
     4     1    31    1
     5     2    28    1
     6     2     3    2
     7     3     4    1
     8     3    26    1
     9     4     5    1
    10     4    32    1
    11     4    33    1
    12     5    11    1
    13     5     6    1
    14     6     7    1
    15     6    34    1
    16     6    35    1
    17     7     8    1
    18     7    12    1
    19     7     9    1
    20     9    10    1
    21     9    11    1
    22     9    12    1
    23    11    36    1
    24    11    37    1
    25    12    13    1
    26    12    14    1
    27    14    15   am
    28    14    38    1
    29    15    16    2
    30    15    17    1
    31    17    18    1
    32    17    39    1
    33    17    40    1
    34    18    19    1
    35    18    24    1
    36    18    20    1
    37    20    21    1
    38    20    41    1
    39    20    42    1
    40    21    22    2
    41    21    23   am
    42    23    24   am
    43    23    43    1
    44    24    25    2
    45    26    27    1
    46    27    28    2
@<TRIPOS>SUBSTRUCTURE
     1 ZINC000963156778        1 TEMP              0 ****  ****    0 ROOT


##########                                Name:    ZINC000464706598
##########                DOCK_Rotatable_Bonds:                   4
##########                         Heavy_Atoms:                  26
##########                    Molecular_Weight:             412.286
##########                DOCK_Rotatable_Bonds:                   4
##########                       Formal_Charge:           0.0100001
##########                     HBond_Acceptors:                   5
##########                        HBond_Donors:                   0
##########                         Heavy_Atoms:                  26
##########                          Grid_Score:          -32.117462
##########                     Grid_vdw_energy:          -31.617939
##########                      Grid_es_energy:           -0.499521
##########           Internal_energy_repulsive:           57.922104

@<TRIPOS>MOLECULE
ZINC000464706598
 44 47 1 0 0
SMALL
USER_CHARGES


@<TRIPOS>ATOM
      1 O1         -8.0439    3.5799   51.5967 O.2     1  ZINC000464706598   -0.5000
      2 C2         -7.8109    2.3904   51.6945 C.2     1  ZINC000464706598    0.5900
      3 C3         -8.3596    1.6224   52.8269 C.2     1  ZINC000464706598   -0.2800
      4 C4         -7.9680    1.7169   54.1475 C.2     1  ZINC000464706598    0.1300
      5 N5         -8.7169    0.8490   54.8517 N.pl3   1  ZINC000464706598   -0.3100
      6 C6         -8.6372    0.6319   56.2342 C.ar    1  ZINC000464706598    0.1700
      7 C7         -7.5988    1.1909   56.9672 C.ar    1  ZINC000464706598   -0.1300
      8 C8         -7.5228    0.9758   58.3293 C.ar    1  ZINC000464706598   -0.0600
      9 C9         -8.4800    0.2038   58.9636 C.ar    1  ZINC000464706598   -0.1000
     10 Br10       -8.3724   -0.0891   60.8286 Br      1  ZINC000464706598   -0.0400
     11 C11        -9.5160   -0.3540   58.2355 C.ar    1  ZINC000464706598   -0.0700
     12 C12        -9.5995   -0.1377   56.8740 C.ar    1  ZINC000464706598   -0.1100
     13 N13        -9.5892    0.2001   53.9707 N.2     1  ZINC000464706598   -0.2800
     14 C14        -9.3891    0.6561   52.7648 C.2     1  ZINC000464706598    0.0700
     15 N15        -7.0557    1.7729   50.7645 N.am    1  ZINC000464706598   -0.6100
     16 C16        -6.7654    0.3334   50.8582 C.3     1  ZINC000464706598    0.0400
     17 C17        -5.2528    0.1345   50.7086 C.3     1  ZINC000464706598    0.0500
     18 O18        -4.8059    0.7964   49.5229 O.3     1  ZINC000464706598   -0.3700
     19 C19        -4.9978    2.2130   49.5358 C.3     1  ZINC000464706598    0.0500
     20 C20        -6.5021    2.5173   49.6222 C.3     1  ZINC000464706598    0.1600
     21 H21        -6.9933    2.2050   48.7006 H       1  ZINC000464706598    0.0900
     22 C22        -6.7098    3.9950   49.8323 C.ar    1  ZINC000464706598   -0.0500
     23 C23        -5.8623    4.7005   50.6660 C.ar    1  ZINC000464706598   -0.1000
     24 C24        -6.0528    6.0560   50.8587 C.ar    1  ZINC000464706598   -0.1100
     25 C25        -7.0905    6.7061   50.2174 C.ar    1  ZINC000464706598   -0.1200
     26 C26        -7.9374    6.0009   49.3830 C.ar    1  ZINC000464706598   -0.1100
     27 C27        -7.7443    4.6463   49.1869 C.ar    1  ZINC000464706598   -0.1000
     28 H28        -7.2014    2.3671   54.5423 H       1  ZINC000464706598    0.1900
     29 H29        -6.8510    1.7930   56.4726 H       1  ZINC000464706598    0.1400
     30 H30        -6.7152    1.4103   58.8999 H       1  ZINC000464706598    0.1500
     31 H31       -10.2620   -0.9559   58.7329 H       1  ZINC000464706598    0.1500
     32 H32       -10.4086   -0.5729   56.3062 H       1  ZINC000464706598    0.1500
     33 H33        -9.9139    0.3448   51.8737 H       1  ZINC000464706598    0.2100
     34 H34        -7.0913   -0.0446   51.8272 H       1  ZINC000464706598    0.1200
     35 H35        -7.2862   -0.1986   50.0620 H       1  ZINC000464706598    0.0800
     36 H36        -4.7427    0.5557   51.5749 H       1  ZINC000464706598    0.0600
     37 H37        -5.0309   -0.9302   50.6367 H       1  ZINC000464706598    0.1100
     38 H38        -4.4869    2.6419   50.3978 H       1  ZINC000464706598    0.0600
     39 H39        -4.5926    2.6437   48.6201 H       1  ZINC000464706598    0.1100
     40 H40        -5.0515    4.1925   51.1670 H       1  ZINC000464706598    0.1100
     41 H41        -5.3911    6.6070   51.5106 H       1  ZINC000464706598    0.1200
     42 H42        -7.2397    7.7651   50.3686 H       1  ZINC000464706598    0.1200
     43 H43        -8.7484    6.5088   48.8823 H       1  ZINC000464706598    0.1200
     44 H44        -8.4060    4.0953   48.5349 H       1  ZINC000464706598    0.1100
@<TRIPOS>BOND
     1     1     2    2
     2     2     3    1
     3     2    15   am
     4     3    14    1
     5     3     4    2
     6     4     5    1
     7     4    28    1
     8     5     6    1
     9     5    13    1
    10     6    12   ar
    11     6     7   ar
    12     7     8   ar
    13     7    29    1
    14     8     9   ar
    15     8    30    1
    16     9    10    1
    17     9    11   ar
    18    11    12   ar
    19    11    31    1
    20    12    32    1
    21    13    14    2
    22    14    33    1
    23    15    20    1
    24    15    16    1
    25    16    17    1
    26    16    34    1
    27    16    35    1
    28    17    18    1
    29    17    36    1
    30    17    37    1
    31    18    19    1
    32    19    20    1
    33    19    38    1
    34    19    39    1
    35    20    21    1
    36    20    22    1
    37    22    27   ar
    38    22    23   ar
    39    23    24   ar
    40    23    40    1
    41    24    25   ar
    42    24    41    1
    43    25    26   ar
    44    25    42    1
    45    26    27   ar
    46    26    43    1
    47    27    44    1
@<TRIPOS>SUBSTRUCTURE
     1 ZINC000464706598        1 TEMP              0 ****  ****    0 ROOT


##########                                Name:    ZINC000426037318
##########                DOCK_Rotatable_Bonds:                   7
##########                         Heavy_Atoms:                  28
##########                    Molecular_Weight:             421.904
##########                DOCK_Rotatable_Bonds:                   7
##########                       Formal_Charge:         -0.00999981
##########                     HBond_Acceptors:                   9
##########                        HBond_Donors:                   1
##########                         Heavy_Atoms:                  28
##########                          Grid_Score:          -32.111767
##########                     Grid_vdw_energy:          -31.440115
##########                      Grid_es_energy:           -0.671651
##########           Internal_energy_repulsive:           17.654020

@<TRIPOS>MOLECULE
ZINC000426037318
 48 50 1 0 0
SMALL
USER_CHARGES


@<TRIPOS>ATOM
      1 C1          1.5869    0.7051   47.2075 C.3     1  ZINC000426037318    0.0300
      2 O2          0.3075    0.9471   46.6190 O.3     1  ZINC000426037318   -0.3800
      3 C3         -0.1230    2.3071   46.7028 C.3     1  ZINC000426037318    0.1300
      4 C4         -1.0097    2.4801   47.9089 C.ar    1  ZINC000426037318    0.3900
      5 N5         -0.5803    3.2183   48.9167 N.ar    1  ZINC000426037318   -0.5700
      6 C6         -1.3190    3.4025   49.9979 C.ar    1  ZINC000426037318    0.4400
      7 O7         -0.8628    4.1626   51.0204 O.3     1  ZINC000426037318   -0.2800
      8 C8          0.2161    5.0549   50.7344 C.3     1  ZINC000426037318    0.0300
      9 C9         -2.5995    2.7904   50.0694 C.ar    1  ZINC000426037318   -0.2000
     10 C10        -3.5596    2.8296   51.0871 C.2     1  ZINC000426037318    0.0500
     11 C11        -3.3457    3.5988   52.3652 C.3     1  ZINC000426037318   -0.1200
     12 C12        -4.6807    2.1381   50.8487 C.2     1  ZINC000426037318   -0.2700
     13 C13        -5.8155    2.0421   51.7753 C.2     1  ZINC000426037318    0.6000
     14 O14        -6.7122    2.8633   51.7263 O.2     1  ZINC000426037318   -0.5000
     15 N15        -5.8641    1.0445   52.6802 N.am    1  ZINC000426037318   -0.6600
     16 C16        -6.9468    0.9529   53.5643 C.ar    1  ZINC000426037318    0.1200
     17 C17        -6.9092    1.6216   54.7800 C.ar    1  ZINC000426037318   -0.0700
     18 C18        -7.9774    1.5312   55.6511 C.ar    1  ZINC000426037318   -0.0900
     19 C19        -7.9364    2.2577   56.9708 C.3     1  ZINC000426037318   -0.1100
     20 C20        -9.0877    0.7725   55.3118 C.ar    1  ZINC000426037318    0.1300
     21 O21       -10.1387    0.6847   56.1700 O.3     1  ZINC000426037318   -0.3100
     22 C22       -11.2123   -0.1805   55.7947 C.3     1  ZINC000426037318    0.0200
     23 C23        -9.1271    0.1035   54.0970 C.ar    1  ZINC000426037318   -0.1800
     24 C24        -8.0619    0.1969   53.2221 C.ar    1  ZINC000426037318   -0.0300
     25 Cl25       -8.1109   -0.6396   51.7017 Cl      1  ZINC000426037318   -0.0600
     26 S26        -4.6080    1.3624   49.2757 S.3     1  ZINC000426037318    0.2200
     27 C27        -3.0049    2.0177   48.9715 C.ar    1  ZINC000426037318    0.1300
     28 N28        -2.1860    1.8964   47.9211 N.ar    1  ZINC000426037318   -0.5000
     29 H29         1.8414   -0.3497   47.1027 H       1  ZINC000426037318    0.0900
     30 H30         2.3392    1.3121   46.7037 H       1  ZINC000426037318    0.0500
     31 H31         1.5563    0.9682   48.2648 H       1  ZINC000426037318    0.0500
     32 H32         0.7462    2.9584   46.7944 H       1  ZINC000426037318    0.0900
     33 H33        -0.6793    2.5682   45.8025 H       1  ZINC000426037318    0.0800
     34 H34        -0.0898    5.7585   49.9603 H       1  ZINC000426037318    0.0700
     35 H35         0.4839    5.6026   51.6379 H       1  ZINC000426037318    0.1100
     36 H36         1.0773    4.4841   50.3868 H       1  ZINC000426037318    0.0700
     37 H37        -3.7163    4.6166   52.2431 H       1  ZINC000426037318    0.0900
     38 H38        -3.8845    3.1109   53.1774 H       1  ZINC000426037318    0.1000
     39 H39        -2.2815    3.6254   52.5996 H       1  ZINC000426037318    0.0800
     40 H40        -5.1494    0.3898   52.7192 H       1  ZINC000426037318    0.4100
     41 H41        -6.0447    2.2122   55.0449 H       1  ZINC000426037318    0.1600
     42 H42        -8.3552    3.2566   56.8489 H       1  ZINC000426037318    0.0700
     43 H43        -8.5206    1.7062   57.7075 H       1  ZINC000426037318    0.0700
     44 H44        -6.9037    2.3357   57.3107 H       1  ZINC000426037318    0.0700
     45 H45       -11.6350    0.1547   54.8476 H       1  ZINC000426037318    0.0600
     46 H46       -10.8376   -1.1982   55.6856 H       1  ZINC000426037318    0.0600
     47 H47       -11.9834   -0.1579   56.5649 H       1  ZINC000426037318    0.1000
     48 H48        -9.9921   -0.4871   53.8335 H       1  ZINC000426037318    0.1500
@<TRIPOS>BOND
     1     1     2    1
     2     1    29    1
     3     1    30    1
     4     1    31    1
     5     2     3    1
     6     3     4    1
     7     3    32    1
     8     3    33    1
     9     4    28   ar
    10     4     5   ar
    11     5     6   ar
    12     6     7    1
    13     6     9   ar
    14     7     8    1
    15     8    34    1
    16     8    35    1
    17     8    36    1
    18     9    27   ar
    19     9    10    1
    20    10    11    1
    21    10    12    2
    22    11    37    1
    23    11    38    1
    24    11    39    1
    25    12    13    1
    26    12    26    1
    27    13    14    2
    28    13    15   am
    29    15    16    1
    30    15    40    1
    31    16    24   ar
    32    16    17   ar
    33    17    18   ar
    34    17    41    1
    35    18    19    1
    36    18    20   ar
    37    19    42    1
    38    19    43    1
    39    19    44    1
    40    20    21    1
    41    20    23   ar
    42    21    22    1
    43    22    45    1
    44    22    46    1
    45    22    47    1
    46    23    24   ar
    47    23    48    1
    48    24    25    1
    49    26    27    1
    50    27    28   ar
@<TRIPOS>SUBSTRUCTURE
     1 ZINC000426037318        1 TEMP              0 ****  ****    0 ROOT


##########                                Name:    ZINC000533131987
##########                DOCK_Rotatable_Bonds:                  11
##########                         Heavy_Atoms:                  30
##########                    Molecular_Weight:             419.403
##########                DOCK_Rotatable_Bonds:                  11
##########                       Formal_Charge:                0.01
##########                     HBond_Acceptors:                   9
##########                        HBond_Donors:                   3
##########                         Heavy_Atoms:                  30
##########                          Grid_Score:          -32.039921
##########                     Grid_vdw_energy:          -30.695309
##########                      Grid_es_energy:           -1.344612
##########           Internal_energy_repulsive:           26.421642

@<TRIPOS>MOLECULE
ZINC000533131987
 50 52 1 0 0
SMALL
USER_CHARGES


@<TRIPOS>ATOM
      1 O1         -3.9669    0.8593   49.5103 O.2     1  ZINC000533131987   -0.5700
      2 C2         -4.4086    1.9338   49.1516 C.2     1  ZINC000533131987    0.7100
      3 N3         -5.6983    2.2452   49.3885 N.am    1  ZINC000533131987   -0.7400
      4 C4         -6.5695    1.2868   50.0729 C.3     1  ZINC000533131987    0.1400
      5 C5         -6.9099    1.8132   51.4686 C.3     1  ZINC000533131987   -0.0900
      6 H6         -6.0365    2.3087   51.8930 H       1  ZINC000533131987    0.0900
      7 C7         -8.0647    2.8118   51.3694 C.3     1  ZINC000533131987    0.0800
      8 O8         -7.8796    3.8514   52.3322 O.3     1  ZINC000533131987   -0.5600
      9 C9         -7.3210    0.6456   52.3679 C.3     1  ZINC000533131987   -0.0900
     10 C10        -7.6020    1.1567   53.7575 C.ar    1  ZINC000533131987    0.0000
     11 C11        -6.6983    1.9964   54.3809 C.ar    1  ZINC000533131987   -0.1100
     12 C12        -6.9561    2.4651   55.6558 C.ar    1  ZINC000533131987   -0.0800
     13 C13        -8.1177    2.0945   56.3067 C.ar    1  ZINC000533131987   -0.1300
     14 C14        -9.0220    1.2552   55.6828 C.ar    1  ZINC000533131987   -0.0700
     15 C15        -8.7664    0.7900   54.4067 C.ar    1  ZINC000533131987   -0.1700
     16 C16        -9.7522   -0.1247   53.7266 C.3     1  ZINC000533131987    0.5100
     17 F17        -9.1025   -1.2985   53.3300 F       1  ZINC000533131987   -0.1800
     18 F18       -10.7850   -0.4410   54.6157 F       1  ZINC000533131987   -0.1700
     19 F19       -10.2844    0.5163   52.6026 F       1  ZINC000533131987   -0.1800
     20 N20        -3.6071    2.8155   48.5220 N.am    1  ZINC000533131987   -0.6900
     21 C21        -2.2677    2.4921   48.2759 C.ar    1  ZINC000533131987    0.1600
     22 C22        -1.8958    1.9610   47.0470 C.ar    1  ZINC000533131987   -0.1000
     23 C23        -0.5741    1.6398   46.7990 C.ar    1  ZINC000533131987   -0.1000
     24 C24         0.3844    1.8447   47.7701 C.ar    1  ZINC000533131987   -0.1000
     25 C25         0.0207    2.3778   49.0082 C.ar    1  ZINC000533131987    0.0000
     26 C26         1.0457    2.5988   50.0505 C.2     1  ZINC000533131987    0.2300
     27 N27         1.9471    3.5524   50.0487 N.2     1  ZINC000533131987   -0.4700
     28 C28         2.6987    3.4343   51.1536 C.2     1  ZINC000533131987   -0.0400
     29 C29         2.2434    2.3774   51.8508 C.2     1  ZINC000533131987   -0.0700
     30 O30         1.2071    1.8599   51.1619 O.3     1  ZINC000533131987   -0.2000
     31 C31        -1.3114    2.7070   49.2563 C.ar    1  ZINC000533131987   -0.1000
     32 H32        -6.0497    3.1040   49.1057 H       1  ZINC000533131987    0.4000
     33 H33        -7.4875    1.1567   49.4999 H       1  ZINC000533131987    0.0700
     34 H34        -6.0573    0.3286   50.1610 H       1  ZINC000533131987    0.0800
     35 H35        -8.0871    3.2432   50.3686 H       1  ZINC000533131987    0.0400
     36 H36        -9.0064    2.2990   51.5651 H       1  ZINC000533131987    0.0600
     37 H37        -8.3980    4.6484   52.1552 H       1  ZINC000533131987    0.3800
     38 H38        -8.2183    0.1755   51.9654 H       1  ZINC000533131987    0.0800
     39 H39        -6.5136   -0.0855   52.4060 H       1  ZINC000533131987    0.0900
     40 H40        -5.7907    2.2860   53.8722 H       1  ZINC000533131987    0.1300
     41 H41        -6.2496    3.1207   56.1431 H       1  ZINC000533131987    0.1300
     42 H42        -8.3187    2.4601   57.3029 H       1  ZINC000533131987    0.1300
     43 H43        -9.9295    0.9653   56.1915 H       1  ZINC000533131987    0.1300
     44 H44        -3.9584    3.6744   48.2393 H       1  ZINC000533131987    0.4100
     45 H45        -2.6417    1.7982   46.2831 H       1  ZINC000533131987    0.1500
     46 H46        -0.2910    1.2270   45.8420 H       1  ZINC000533131987    0.1400
     47 H47         1.4157    1.5922   47.5728 H       1  ZINC000533131987    0.1300
     48 H48         3.5229    4.0736   51.4336 H       1  ZINC000533131987    0.1900
     49 H49         2.6333    2.0138   52.7900 H       1  ZINC000533131987    0.2200
     50 H50        -1.5986    3.1198   50.2120 H       1  ZINC000533131987    0.1400
@<TRIPOS>BOND
     1     1     2    2
     2     2     3   am
     3     2    20   am
     4     3     4    1
     5     3    32    1
     6     4     5    1
     7     4    33    1
     8     4    34    1
     9     5     6    1
    10     5     7    1
    11     5     9    1
    12     7     8    1
    13     7    35    1
    14     7    36    1
    15     8    37    1
    16     9    10    1
    17     9    38    1
    18     9    39    1
    19    10    15   ar
    20    10    11   ar
    21    11    12   ar
    22    11    40    1
    23    12    13   ar
    24    12    41    1
    25    13    14   ar
    26    13    42    1
    27    14    15   ar
    28    14    43    1
    29    15    16    1
    30    16    17    1
    31    16    18    1
    32    16    19    1
    33    20    21    1
    34    20    44    1
    35    21    31   ar
    36    21    22   ar
    37    22    23   ar
    38    22    45    1
    39    23    24   ar
    40    23    46    1
    41    24    25   ar
    42    24    47    1
    43    25    26    1
    44    25    31   ar
    45    26    30    1
    46    26    27    2
    47    27    28    1
    48    28    29    2
    49    28    48    1
    50    29    30    1
    51    29    49    1
    52    31    50    1
@<TRIPOS>SUBSTRUCTURE
     1 ZINC000533131987        1 TEMP              0 ****  ****    0 ROOT


##########                                Name:    ZINC000462219577
##########                DOCK_Rotatable_Bonds:                   8
##########                         Heavy_Atoms:                  31
##########                    Molecular_Weight:             418.539
##########                DOCK_Rotatable_Bonds:                   8
##########                       Formal_Charge:         -0.00999914
##########                     HBond_Acceptors:                   6
##########                        HBond_Donors:                   2
##########                         Heavy_Atoms:                  31
##########                          Grid_Score:          -32.039425
##########                     Grid_vdw_energy:          -32.201271
##########                      Grid_es_energy:            0.161845
##########           Internal_energy_repulsive:           12.480115

@<TRIPOS>MOLECULE
ZINC000462219577
 61 64 1 0 0
SMALL
USER_CHARGES


@<TRIPOS>ATOM
      1 C1         -8.3820   -0.9727   59.4501 C.3     1  ZINC000462219577   -0.0700
      2 C2         -8.7072    0.0575   58.3993 C.2     1  ZINC000462219577    0.0800
      3 N3         -9.8249    0.1369   57.7231 N.2     1  ZINC000462219577   -0.2900
      4 N4         -9.7315    1.2277   56.8490 N.pl3   1  ZINC000462219577   -0.3200
      5 C5        -10.7205    1.6522   55.9508 C.ar    1  ZINC000462219577    0.1500
      6 C6        -11.2500    2.9315   56.0530 C.ar    1  ZINC000462219577   -0.1100
      7 C7        -12.2244    3.3469   55.1665 C.ar    1  ZINC000462219577   -0.1000
      8 C8        -12.6728    2.4898   54.1782 C.ar    1  ZINC000462219577   -0.1200
      9 C9        -12.1476    1.2148   54.0743 C.ar    1  ZINC000462219577   -0.1000
     10 C10       -11.1683    0.7961   54.9537 C.ar    1  ZINC000462219577   -0.1300
     11 C11        -8.5185    1.7987   57.0255 C.2     1  ZINC000462219577    0.0900
     12 C12        -7.9884    3.0039   56.2924 C.3     1  ZINC000462219577   -0.0800
     13 C13        -6.5628    2.7229   55.8131 C.3     1  ZINC000462219577    0.1700
     14 H14        -6.3413    1.6625   55.9336 H       1  ZINC000462219577    0.1000
     15 C15        -5.5747    3.5476   56.6405 C.3     1  ZINC000462219577   -0.1600
     16 N16        -6.4416    3.0897   54.3999 N.am    1  ZINC000462219577   -0.7400
     17 C17        -6.3256    2.1289   53.4619 C.2     1  ZINC000462219577    0.7100
     18 O18        -6.3230    0.9577   53.7885 O.2     1  ZINC000462219577   -0.5800
     19 N19        -6.2125    2.4663   52.1619 N.am    1  ZINC000462219577   -0.7400
     20 C20        -6.0882    1.4219   51.1422 C.3     1  ZINC000462219577    0.1600
     21 H21        -6.3426    0.4554   51.5773 H       1  ZINC000462219577    0.1000
     22 C22        -7.0373    1.7259   49.9789 C.3     1  ZINC000462219577   -0.1700
     23 C23        -6.6247    3.0479   49.3262 C.3     1  ZINC000462219577    0.0700
     24 O24        -5.2675    2.9580   48.8881 O.3     1  ZINC000462219577   -0.3700
     25 C25        -4.3293    2.7219   49.9399 C.3     1  ZINC000462219577    0.1400
     26 H26        -4.3945    3.5263   50.6726 H       1  ZINC000462219577    0.0600
     27 C27        -2.9355    2.6742   49.3687 C.ar    1  ZINC000462219577   -0.0900
     28 C28        -1.8589    3.0730   50.1387 C.ar    1  ZINC000462219577   -0.0900
     29 C29        -0.5805    3.0292   49.6147 C.ar    1  ZINC000462219577   -0.1200
     30 C30        -0.3786    2.5865   48.3209 C.ar    1  ZINC000462219577   -0.1200
     31 C31        -1.4551    2.1869   47.5512 C.ar    1  ZINC000462219577   -0.1200
     32 C32        -2.7330    2.2266   48.0766 C.ar    1  ZINC000462219577   -0.1100
     33 C33        -4.6490    1.3854   50.6189 C.3     1  ZINC000462219577   -0.1500
     34 C34        -7.8687    1.0973   57.9830 C.2     1  ZINC000462219577   -0.2600
     35 H35        -8.7029   -0.6095   60.4264 H       1  ZINC000462219577    0.0800
     36 H36        -8.9012   -1.9030   59.2197 H       1  ZINC000462219577    0.0700
     37 H37        -7.3067   -1.1505   59.4640 H       1  ZINC000462219577    0.0800
     38 H38       -10.9007    3.6011   56.8249 H       1  ZINC000462219577    0.1300
     39 H39       -12.6367    4.3419   55.2454 H       1  ZINC000462219577    0.1300
     40 H40       -13.4350    2.8167   53.4865 H       1  ZINC000462219577    0.1300
     41 H41       -12.5002    0.5475   53.3020 H       1  ZINC000462219577    0.1300
     42 H42       -10.7584   -0.1998   54.8720 H       1  ZINC000462219577    0.1300
     43 H43        -8.6253    3.2161   55.4337 H       1  ZINC000462219577    0.0900
     44 H44        -7.9835    3.8637   56.9624 H       1  ZINC000462219577    0.1100
     45 H45        -5.7963    4.6081   56.5200 H       1  ZINC000462219577    0.0600
     46 H46        -5.6649    3.2747   57.6919 H       1  ZINC000462219577    0.0700
     47 H47        -4.5591    3.3475   56.2990 H       1  ZINC000462219577    0.0700
     48 H48        -6.4449    4.0240   54.1393 H       1  ZINC000462219577    0.3900
     49 H49        -6.2134    3.4008   51.9016 H       1  ZINC000462219577    0.3900
     50 H50        -6.9809    0.9233   49.2436 H       1  ZINC000462219577    0.0800
     51 H51        -8.0578    1.8074   50.3532 H       1  ZINC000462219577    0.0800
     52 H52        -7.2703    3.2479   48.4710 H       1  ZINC000462219577    0.1000
     53 H53        -6.7200    3.8565   50.0508 H       1  ZINC000462219577    0.0500
     54 H54        -2.0167    3.4188   51.1495 H       1  ZINC000462219577    0.1300
     55 H55         0.2605    3.3413   50.2162 H       1  ZINC000462219577    0.1200
     56 H56         0.6202    2.5529   47.9113 H       1  ZINC000462219577    0.1200
     57 H57        -1.2972    1.8413   46.5402 H       1  ZINC000462219577    0.1200
     58 H58        -3.5741    1.9145   47.4752 H       1  ZINC000462219577    0.1200
     59 H59        -3.9616    1.2252   51.4495 H       1  ZINC000462219577    0.0800
     60 H60        -4.5444    0.5757   49.8967 H       1  ZINC000462219577    0.0900
     61 H61        -6.8752    1.3000   58.3551 H       1  ZINC000462219577    0.1500
@<TRIPOS>BOND
     1     1     2    1
     2     1    35    1
     3     1    36    1
     4     1    37    1
     5     2    34    1
     6     2     3    2
     7     3     4    1
     8     4     5    1
     9     4    11    1
    10     5    10   ar
    11     5     6   ar
    12     6     7   ar
    13     6    38    1
    14     7     8   ar
    15     7    39    1
    16     8     9   ar
    17     8    40    1
    18     9    10   ar
    19     9    41    1
    20    10    42    1
    21    11    12    1
    22    11    34    2
    23    12    13    1
    24    12    43    1
    25    12    44    1
    26    13    14    1
    27    13    15    1
    28    13    16    1
    29    15    45    1
    30    15    46    1
    31    15    47    1
    32    16    17   am
    33    16    48    1
    34    17    18    2
    35    17    19   am
    36    19    20    1
    37    19    49    1
    38    20    21    1
    39    20    33    1
    40    20    22    1
    41    22    23    1
    42    22    50    1
    43    22    51    1
    44    23    24    1
    45    23    52    1
    46    23    53    1
    47    24    25    1
    48    25    26    1
    49    25    27    1
    50    25    33    1
    51    27    32   ar
    52    27    28   ar
    53    28    29   ar
    54    28    54    1
    55    29    30   ar
    56    29    55    1
    57    30    31   ar
    58    30    56    1
    59    31    32   ar
    60    31    57    1
    61    32    58    1
    62    33    59    1
    63    33    60    1
    64    34    61    1
@<TRIPOS>SUBSTRUCTURE
     1 ZINC000462219577        1 TEMP              0 ****  ****    0 ROOT


##########                                Name:    ZINC000939075213
##########                DOCK_Rotatable_Bonds:                   7
##########                         Heavy_Atoms:                  24
##########                    Molecular_Weight:             327.426
##########                DOCK_Rotatable_Bonds:                   7
##########                       Formal_Charge:          -0.0200002
##########                     HBond_Acceptors:                   5
##########                        HBond_Donors:                   2
##########                         Heavy_Atoms:                  24
##########                          Grid_Score:          -32.033386
##########                     Grid_vdw_energy:          -29.263573
##########                      Grid_es_energy:           -2.769815
##########           Internal_energy_repulsive:            7.109035

@<TRIPOS>MOLECULE
ZINC000939075213
 49 51 1 0 0
SMALL
USER_CHARGES


@<TRIPOS>ATOM
      1 C1          0.0554    4.6745   50.6059 C.3     1  ZINC000939075213   -0.1400
      2 C2         -0.8319    3.4693   50.9241 C.3     1  ZINC000939075213   -0.1100
      3 H3         -0.2280    2.5994   51.1824 H       1  ZINC000939075213    0.0900
      4 C4         -1.7839    3.1537   49.7436 C.3     1  ZINC000939075213    0.1100
      5 N5         -2.9270    2.4539   50.3574 N.am    1  ZINC000939075213   -0.6200
      6 C6         -3.7591    1.6032   49.7245 C.2     1  ZINC000939075213    0.5600
      7 O7         -3.5965    1.3587   48.5426 O.2     1  ZINC000939075213   -0.5400
      8 C8         -4.8219    0.9942   50.4333 C.2     1  ZINC000939075213   -0.2600
      9 C9         -5.9711    1.6799   50.6530 C.2     1  ZINC000939075213    0.0400
     10 C10        -7.0351    1.0704   51.3625 C.2     1  ZINC000939075213    0.0000
     11 C11        -8.2530    1.6502   51.6671 C.2     1  ZINC000939075213   -0.1500
     12 C12        -8.9962    0.6982   52.3712 C.2     1  ZINC000939075213   -0.2200
     13 C13        -8.2403   -0.4208   52.4835 C.2     1  ZINC000939075213    0.0200
     14 N14        -7.0479   -0.2096   51.8698 N.pl3   1  ZINC000939075213   -0.5000
     15 C15        -3.0087    2.8370   51.7745 C.3     1  ZINC000939075213    0.0900
     16 C16        -1.8385    3.8035   52.0565 C.3     1  ZINC000939075213    0.1400
     17 H17        -2.1686    4.8399   51.9848 H       1  ZINC000939075213    0.1100
     18 N18        -1.2527    3.5380   53.3728 N.am    1  ZINC000939075213   -0.7200
     19 C19        -1.3077    4.4781   54.3369 C.2     1  ZINC000939075213    0.5300
     20 O20        -1.8410    5.5445   54.1145 O.2     1  ZINC000939075213   -0.5300
     21 C21        -0.7067    4.2043   55.6915 C.3     1  ZINC000939075213   -0.0600
     22 C22        -1.0380    5.3412   56.6602 C.3     1  ZINC000939075213   -0.1300
     23 C23        -1.2075    2.8855   56.2328 C.2     1  ZINC000939075213   -0.1700
     24 C24        -0.2307    2.1850   56.7417 C.2     1  ZINC000939075213   -0.1400
     25 C25         1.0843    2.9198   56.6247 C.3     1  ZINC000939075213   -0.1100
     26 C26         0.8249    4.0252   55.5749 C.3     1  ZINC000939075213   -0.1100
     27 H27         0.6560    4.9246   51.4806 H       1  ZINC000939075213    0.0600
     28 H28         0.7131    4.4312   49.7713 H       1  ZINC000939075213    0.0700
     29 H29        -0.5703    5.5261   50.3392 H       1  ZINC000939075213    0.0600
     30 H30        -2.1153    4.0760   49.2665 H       1  ZINC000939075213    0.0700
     31 H31        -1.2883    2.5077   49.0190 H       1  ZINC000939075213    0.0800
     32 H32        -4.7177   -0.0165   50.7993 H       1  ZINC000939075213    0.1300
     33 H33        -6.0752    2.6906   50.2869 H       1  ZINC000939075213    0.1500
     34 H34        -8.5701    2.6501   51.4100 H       1  ZINC000939075213    0.1400
     35 H35        -9.9959    0.8312   52.7574 H       1  ZINC000939075213    0.1400
     36 H36        -8.5392   -1.3334   52.9777 H       1  ZINC000939075213    0.1600
     37 H37        -6.3235   -0.8514   51.8047 H       1  ZINC000939075213    0.4100
     38 H38        -3.9578    3.3364   51.9693 H       1  ZINC000939075213    0.0800
     39 H39        -2.9172    1.9516   52.4037 H       1  ZINC000939075213    0.0700
     40 H40        -0.8252    2.6856   53.5504 H       1  ZINC000939075213    0.4000
     41 H41        -2.1200    5.4360   56.7526 H       1  ZINC000939075213    0.0600
     42 H42        -0.6076    5.1230   57.6374 H       1  ZINC000939075213    0.0700
     43 H43        -0.6228    6.2748   56.2804 H       1  ZINC000939075213    0.0600
     44 H44        -2.2383    2.5648   56.2028 H       1  ZINC000939075213    0.1300
     45 H45        -0.3473    1.2086   57.1883 H       1  ZINC000939075213    0.1300
     46 H46         1.3585    3.3625   57.5824 H       1  ZINC000939075213    0.0800
     47 H47         1.8672    2.2446   56.2796 H       1  ZINC000939075213    0.0800
     48 H48         1.1048    3.6897   54.5762 H       1  ZINC000939075213    0.0900
     49 H49         1.3476    4.9448   55.8378 H       1  ZINC000939075213    0.0800
@<TRIPOS>BOND
     1     1     2    1
     2     1    27    1
     3     1    28    1
     4     1    29    1
     5     2     3    1
     6     2    16    1
     7     2     4    1
     8     4     5    1
     9     4    30    1
    10     4    31    1
    11     5     6   am
    12     5    15    1
    13     6     7    2
    14     6     8    1
    15     8     9    2
    16     8    32    1
    17     9    10    1
    18     9    33    1
    19    10    14    1
    20    10    11    2
    21    11    12    1
    22    11    34    1
    23    12    13    2
    24    12    35    1
    25    13    14    1
    26    13    36    1
    27    14    37    1
    28    15    16    1
    29    15    38    1
    30    15    39    1
    31    16    17    1
    32    16    18    1
    33    18    19   am
    34    18    40    1
    35    19    20    2
    36    19    21    1
    37    21    26    1
    38    21    22    1
    39    21    23    1
    40    22    41    1
    41    22    42    1
    42    22    43    1
    43    23    24    2
    44    23    44    1
    45    24    25    1
    46    24    45    1
    47    25    26    1
    48    25    46    1
    49    25    47    1
    50    26    48    1
    51    26    49    1
@<TRIPOS>SUBSTRUCTURE
     1 ZINC000939075213        1 TEMP              0 ****  ****    0 ROOT


##########                                Name:    ZINC001015666108
##########                DOCK_Rotatable_Bonds:                   7
##########                         Heavy_Atoms:                  25
##########                    Molecular_Weight:             346.429
##########                DOCK_Rotatable_Bonds:                   7
##########                       Formal_Charge:          -0.0199997
##########                     HBond_Acceptors:                   7
##########                        HBond_Donors:                   1
##########                         Heavy_Atoms:                  25
##########                          Grid_Score:          -31.993469
##########                     Grid_vdw_energy:          -31.544516
##########                      Grid_es_energy:           -0.448953
##########           Internal_energy_repulsive:           13.688451

@<TRIPOS>MOLECULE
ZINC001015666108
 51 53 1 0 0
SMALL
USER_CHARGES


@<TRIPOS>ATOM
      1 C1         -8.6510    5.3828   48.0675 C.3     1  ZINC001015666108   -0.1400
      2 C2         -8.0787    4.5237   49.1969 C.3     1  ZINC001015666108   -0.0700
      3 C3         -9.1939    4.0917   50.1138 C.2     1  ZINC001015666108   -0.0700
      4 C4         -9.1005    3.2085   51.1508 C.2     1  ZINC001015666108   -0.0900
      5 C5         -7.8866    2.5034   51.5755 C.2     1  ZINC001015666108    0.6100
      6 O6         -7.6451    2.3673   52.7605 O.2     1  ZINC001015666108   -0.5100
      7 N7         -7.0388    2.0059   50.6535 N.am    1  ZINC001015666108   -0.7200
      8 C8         -5.8254    1.3031   51.0777 C.3     1  ZINC001015666108    0.1400
      9 H9         -6.0191    0.7276   51.9829 H       1  ZINC001015666108    0.1100
     10 C10        -5.3209    0.3747   49.9492 C.3     1  ZINC001015666108   -0.1300
     11 C11        -4.2307    1.2310   49.2574 C.3     1  ZINC001015666108    0.0300
     12 N12        -3.5853    1.9405   50.3914 N.3     1  ZINC001015666108   -0.5100
     13 C13        -2.8683    3.1350   49.9256 C.3     1  ZINC001015666108    0.1700
     14 H14        -3.5769    3.8338   49.4811 H       1  ZINC001015666108    0.0900
     15 C15        -2.1676    3.8036   51.1100 C.3     1  ZINC001015666108   -0.1500
     16 C16        -1.8432    2.7358   48.8955 C.2     1  ZINC001015666108    0.1900
     17 N17        -0.5419    2.7178   49.0550 N.2     1  ZINC001015666108   -0.4800
     18 C18        -0.0388    2.2989   47.8801 C.2     1  ZINC001015666108    0.1800
     19 C19         1.4194    2.1091   47.5511 C.3     1  ZINC001015666108    0.0000
     20 C20         1.6638    0.6572   47.1353 C.3     1  ZINC001015666108   -0.1500
     21 C21         1.8085    3.0411   46.4018 C.3     1  ZINC001015666108   -0.1500
     22 N22        -1.0414    2.0875   47.0809 N.2     1  ZINC001015666108   -0.3800
     23 O23        -2.0873    2.3270   47.6468 O.3     1  ZINC001015666108    0.1000
     24 C24        -4.6823    2.3069   51.3169 C.3     1  ZINC001015666108    0.0300
     25 O25       -10.3203    3.0980   51.7164 O.3     1  ZINC001015666108   -0.1700
     26 C26       -11.1850    3.8873   51.0660 C.2     1  ZINC001015666108    0.0000
     27 C27       -10.5287    4.5239   50.0710 C.2     1  ZINC001015666108   -0.2200
     28 H28        -7.8444    5.6954   47.4043 H       1  ZINC001015666108    0.0600
     29 H29        -9.3808    4.8022   47.5034 H       1  ZINC001015666108    0.0600
     30 H30        -9.1354    6.2630   48.4902 H       1  ZINC001015666108    0.0500
     31 H31        -7.5943    3.6435   48.7741 H       1  ZINC001015666108    0.0900
     32 H32        -7.3489    5.1045   49.7610 H       1  ZINC001015666108    0.0700
     33 H33        -7.2319    2.1133   49.7090 H       1  ZINC001015666108    0.4000
     34 H34        -4.8901   -0.5370   50.3635 H       1  ZINC001015666108    0.0900
     35 H35        -6.1266    0.1403   49.2535 H       1  ZINC001015666108    0.0800
     36 H36        -3.5112    0.5947   48.7421 H       1  ZINC001015666108    0.0800
     37 H37        -4.6818    1.9421   48.5653 H       1  ZINC001015666108    0.0500
     38 H38        -1.4589    3.1047   51.5546 H       1  ZINC001015666108    0.0800
     39 H39        -1.6355    4.6899   50.7643 H       1  ZINC001015666108    0.0700
     40 H40        -2.9089    4.0923   51.8550 H       1  ZINC001015666108    0.0800
     41 H41         2.0231    2.3423   48.4282 H       1  ZINC001015666108    0.1000
     42 H42         1.0601    0.4239   46.2583 H       1  ZINC001015666108    0.0600
     43 H43         2.7186    0.5199   46.8974 H       1  ZINC001015666108    0.0700
     44 H44         1.3866   -0.0068   47.9540 H       1  ZINC001015666108    0.0600
     45 H45         1.2048    2.8080   45.5247 H       1  ZINC001015666108    0.0600
     46 H46         1.6345    4.0756   46.6980 H       1  ZINC001015666108    0.0600
     47 H47         2.8633    2.9039   46.1638 H       1  ZINC001015666108    0.0700
     48 H48        -5.0261    3.3189   51.1030 H       1  ZINC001015666108    0.0600
     49 H49        -4.3360    2.2398   52.3482 H       1  ZINC001015666108    0.1000
     50 H50       -12.2332    3.9998   51.3008 H       1  ZINC001015666108    0.2100
     51 H51       -10.9529    5.2279   49.3703 H       1  ZINC001015666108    0.1600
@<TRIPOS>BOND
     1     1     2    1
     2     1    28    1
     3     1    29    1
     4     1    30    1
     5     2     3    1
     6     2    31    1
     7     2    32    1
     8     3    27    1
     9     3     4    2
    10     4     5    1
    11     4    25    1
    12     5     6    2
    13     5     7   am
    14     7     8    1
    15     7    33    1
    16     8     9    1
    17     8    24    1
    18     8    10    1
    19    10    11    1
    20    10    34    1
    21    10    35    1
    22    11    12    1
    23    11    36    1
    24    11    37    1
    25    12    13    1
    26    12    24    1
    27    13    14    1
    28    13    15    1
    29    13    16    1
    30    15    38    1
    31    15    39    1
    32    15    40    1
    33    16    23    1
    34    16    17    2
    35    17    18    1
    36    18    19    1
    37    18    22    2
    38    19    20    1
    39    19    21    1
    40    19    41    1
    41    20    42    1
    42    20    43    1
    43    20    44    1
    44    21    45    1
    45    21    46    1
    46    21    47    1
    47    22    23    1
    48    24    48    1
    49    24    49    1
    50    25    26    1
    51    26    27    2
    52    26    50    1
    53    27    51    1
@<TRIPOS>SUBSTRUCTURE
     1 ZINC001015666108        1 TEMP              0 ****  ****    0 ROOT


##########                                Name:    ZINC001109082135
##########                DOCK_Rotatable_Bonds:                   9
##########                         Heavy_Atoms:                  27
##########                    Molecular_Weight:             373.455
##########                DOCK_Rotatable_Bonds:                   9
##########                       Formal_Charge:          -0.0100003
##########                     HBond_Acceptors:                   8
##########                        HBond_Donors:                   3
##########                         Heavy_Atoms:                  27
##########                          Grid_Score:          -31.963877
##########                     Grid_vdw_energy:          -30.944618
##########                      Grid_es_energy:           -1.019259
##########           Internal_energy_repulsive:           16.386667

@<TRIPOS>MOLECULE
ZINC001109082135
 54 57 1 0 0
SMALL
USER_CHARGES


@<TRIPOS>ATOM
      1 C1         -8.9187   -0.1628   63.0346 C.3     1  ZINC001109082135   -0.1400
      2 C2         -8.6849    0.0364   61.5358 C.3     1  ZINC001109082135   -0.1400
      3 C3         -9.7770   -0.6550   60.7608 C.2     1  ZINC001109082135    0.5100
      4 O4        -10.8920   -0.7415   61.2301 O.2     1  ZINC001109082135   -0.5400
      5 N5         -9.5146   -1.1770   59.5463 N.am    1  ZINC001109082135   -0.7200
      6 C6        -10.5758   -1.8506   58.7936 C.3     1  ZINC001109082135    0.1000
      7 C7        -10.3481   -1.6522   57.3173 C.2     1  ZINC001109082135    0.5100
      8 O8        -10.6576   -2.5243   56.5333 O.2     1  ZINC001109082135   -0.5300
      9 N9         -9.8006   -0.5055   56.8680 N.am    1  ZINC001109082135   -0.7100
     10 C10        -9.5808   -0.3119   55.4325 C.3     1  ZINC001109082135    0.1100
     11 H11        -9.1544   -1.2103   54.9863 H       1  ZINC001109082135    0.0900
     12 C12       -10.9037    0.0726   54.7257 C.3     1  ZINC001109082135   -0.1600
     13 C13       -10.6064    1.4859   54.1400 C.3     1  ZINC001109082135    0.0600
     14 H14       -11.2478    1.7983   53.3159 H       1  ZINC001109082135    0.1300
     15 C15       -10.5839    2.4381   55.3736 C.3     1  ZINC001109082135   -0.1200
     16 C16        -9.2677    2.0619   56.0972 C.3     1  ZINC001109082135   -0.1100
     17 C17        -8.6575    0.9178   55.1797 C.3     1  ZINC001109082135    0.0400
     18 H18        -7.5856    0.7511   55.2857 H       1  ZINC001109082135    0.1200
     19 N19        -9.1392    1.3628   53.8211 N.3     1  ZINC001109082135   -0.4800
     20 C20        -8.8915    0.3269   52.8095 C.3     1  ZINC001109082135    0.0800
     21 C21        -8.0083    0.8860   51.7238 C.2     1  ZINC001109082135    0.2000
     22 C22        -6.9975    0.1310   51.2106 C.2     1  ZINC001109082135   -0.2900
     23 C23        -6.1902    0.6844   50.1954 C.2     1  ZINC001109082135    0.5200
     24 O24        -5.2747    0.0423   49.7081 O.2     1  ZINC001109082135   -0.5400
     25 N25        -6.4525    1.9399   49.7739 N.am    1  ZINC001109082135   -0.6300
     26 C26        -7.4682    2.6348   50.3229 C.2     1  ZINC001109082135    0.4300
     27 C27        -7.7478    4.0351   49.8411 C.3     1  ZINC001109082135   -0.1400
     28 C28        -7.9665    5.1164   50.9013 C.3     1  ZINC001109082135   -0.1400
     29 C29        -6.6717    5.0945   50.0865 C.3     1  ZINC001109082135   -0.1400
     30 N30        -8.2192    2.1201   51.2599 N.2     1  ZINC001109082135   -0.5300
     31 H31        -8.9095   -1.2280   63.2654 H       1  ZINC001109082135    0.0600
     32 H32        -8.1289    0.3373   63.5951 H       1  ZINC001109082135    0.0600
     33 H33        -9.8843    0.2606   63.3111 H       1  ZINC001109082135    0.0600
     34 H34        -8.6941    1.1017   61.3050 H       1  ZINC001109082135    0.1000
     35 H35        -7.7193   -0.3870   61.2593 H       1  ZINC001109082135    0.1000
     36 H36        -8.6231   -1.1067   59.1705 H       1  ZINC001109082135    0.4100
     37 H37       -10.5637   -2.9162   59.0232 H       1  ZINC001109082135    0.1000
     38 H38       -11.5420   -1.4299   59.0721 H       1  ZINC001109082135    0.1000
     39 H39        -9.5519    0.1914   57.4951 H       1  ZINC001109082135    0.4000
     40 H40       -11.1315   -0.6335   53.9272 H       1  ZINC001109082135    0.0800
     41 H41       -11.7228    0.1191   55.4433 H       1  ZINC001109082135    0.0800
     42 H42       -10.5617    3.4799   55.0538 H       1  ZINC001109082135    0.0700
     43 H43       -11.4429    2.2516   56.0181 H       1  ZINC001109082135    0.0700
     44 H44        -8.5932    2.9173   56.1361 H       1  ZINC001109082135    0.0700
     45 H45        -9.4743    1.6889   57.1003 H       1  ZINC001109082135    0.0700
     46 H46        -8.3981   -0.5259   53.2759 H       1  ZINC001109082135    0.1000
     47 H47        -9.8396    0.0067   52.3776 H       1  ZINC001109082135    0.0700
     48 H48        -6.8178   -0.8701   51.5738 H       1  ZINC001109082135    0.1600
     49 H49        -5.9104    2.3415   49.0769 H       1  ZINC001109082135    0.4200
     50 H50        -8.3257    4.1087   48.9199 H       1  ZINC001109082135    0.1300
     51 H51        -8.6887    5.9017   50.6776 H       1  ZINC001109082135    0.1100
     52 H52        -7.9083    4.8149   51.9471 H       1  ZINC001109082135    0.1100
     53 H53        -5.7614    4.7788   50.5965 H       1  ZINC001109082135    0.1100
     54 H54        -6.5419    5.8655   49.3270 H       1  ZINC001109082135    0.1100
@<TRIPOS>BOND
     1     1     2    1
     2     1    31    1
     3     1    32    1
     4     1    33    1
     5     2     3    1
     6     2    34    1
     7     2    35    1
     8     3     4    2
     9     3     5   am
    10     5     6    1
    11     5    36    1
    12     6     7    1
    13     6    37    1
    14     6    38    1
    15     7     8    2
    16     7     9   am
    17     9    10    1
    18     9    39    1
    19    10    11    1
    20    10    17    1
    21    10    12    1
    22    12    13    1
    23    12    40    1
    24    12    41    1
    25    13    14    1
    26    13    19    1
    27    13    15    1
    28    15    16    1
    29    15    42    1
    30    15    43    1
    31    16    17    1
    32    16    44    1
    33    16    45    1
    34    17    18    1
    35    17    19    1
    36    19    20    1
    37    20    21    1
    38    20    46    1
    39    20    47    1
    40    21    30    1
    41    21    22    2
    42    22    23    1
    43    22    48    1
    44    23    24    2
    45    23    25   am
    46    25    26    1
    47    25    49    1
    48    26    27    1
    49    26    30    2
    50    27    29    1
    51    27    28    1
    52    27    50    1
    53    28    29    1
    54    28    51    1
    55    28    52    1
    56    29    53    1
    57    29    54    1
@<TRIPOS>SUBSTRUCTURE
     1 ZINC001109082135        1 TEMP              0 ****  ****    0 ROOT


##########                                Name:    ZINC000962855438
##########                DOCK_Rotatable_Bonds:                   7
##########                         Heavy_Atoms:                  27
##########                    Molecular_Weight:             370.448
##########                DOCK_Rotatable_Bonds:                   7
##########                       Formal_Charge:           0.0300005
##########                     HBond_Acceptors:                   6
##########                        HBond_Donors:                   2
##########                         Heavy_Atoms:                  27
##########                          Grid_Score:          -31.962072
##########                     Grid_vdw_energy:          -31.384146
##########                      Grid_es_energy:           -0.577926
##########           Internal_energy_repulsive:            8.754246

@<TRIPOS>MOLECULE
ZINC000962855438
 53 56 1 0 0
SMALL
USER_CHARGES


@<TRIPOS>ATOM
      1 C1        -11.4085    0.7756   52.1644 C.3     1  ZINC000962855438   -0.1100
      2 C2        -10.4979    0.5428   53.3425 C.2     1  ZINC000962855438   -0.1700
      3 C3         -9.0700    0.8827   53.2468 C.2     1  ZINC000962855438    0.5600
      4 O4         -8.3491    0.7592   54.2185 O.2     1  ZINC000962855438   -0.5400
      5 N5         -8.5604    1.3308   52.0823 N.am    1  ZINC000962855438   -0.7100
      6 C6         -7.1386    1.6710   51.9875 C.3     1  ZINC000962855438    0.1500
      7 H7         -6.7674    2.0572   52.9366 H       1  ZINC000962855438    0.1200
      8 C8         -6.8845    2.6799   50.8398 C.3     1  ZINC000962855438    0.1000
      9 N9         -5.4768    2.4683   50.4562 N.am    1  ZINC000962855438   -0.6100
     10 C10        -4.6819    3.3751   49.8542 C.2     1  ZINC000962855438    0.5800
     11 O11        -5.1155    4.4779   49.5818 O.2     1  ZINC000962855438   -0.5200
     12 C12        -3.2857    3.0295   49.5257 C.ar    1  ZINC000962855438   -0.1500
     13 C13        -2.9735    2.4978   48.2745 C.ar    1  ZINC000962855438   -0.0600
     14 C14        -1.6702    2.1732   47.9651 C.ar    1  ZINC000962855438   -0.1500
     15 C15        -0.6665    2.3715   48.9000 C.ar    1  ZINC000962855438   -0.0500
     16 C16        -0.9640    2.8931   50.1392 C.ar    1  ZINC000962855438   -0.1800
     17 C17        -2.2663    3.2411   50.4718 C.ar    1  ZINC000962855438    0.1600
     18 O18        -2.3348    3.7547   51.7277 O.3     1  ZINC000962855438   -0.2800
     19 C19        -1.1604    3.3695   52.4623 C.3     1  ZINC000962855438    0.0700
     20 H20        -1.3240    2.4277   52.9860 H       1  ZINC000962855438    0.0900
     21 C21        -0.7499    4.4690   53.4438 C.3     1  ZINC000962855438   -0.1500
     22 C22        -0.0996    3.2052   51.3459 C.3     1  ZINC000962855438   -0.1100
     23 C23        -5.0835    1.1046   50.8399 C.3     1  ZINC000962855438    0.0700
     24 C24        -6.3045    0.4491   51.5198 C.3     1  ZINC000962855438    0.0900
     25 H25        -5.9932   -0.1555   52.3717 H       1  ZINC000962855438    0.0900
     26 O26        -7.0408   -0.3408   50.5837 O.3     1  ZINC000962855438   -0.5600
     27 C27       -10.9855    0.0303   54.4687 C.2     1  ZINC000962855438   -0.0600
     28 C28       -10.4370   -0.3406   55.8303 C.3     1  ZINC000962855438   -0.1000
     29 C29       -11.5821   -1.3599   55.9367 C.3     1  ZINC000962855438   -0.1400
     30 C30       -12.3380   -0.4366   54.9636 C.3     1  ZINC000962855438   -0.1100
     31 H31       -11.4256   -0.1155   51.5370 H       1  ZINC000962855438    0.0700
     32 H32       -12.4164    0.9885   52.5208 H       1  ZINC000962855438    0.0700
     33 H33       -11.0420    1.6220   51.5836 H       1  ZINC000962855438    0.0700
     34 H34        -9.1352    1.4282   51.3070 H       1  ZINC000962855438    0.4100
     35 H35        -7.5430    2.4697   49.9971 H       1  ZINC000962855438    0.0800
     36 H36        -7.0322    3.7006   51.1923 H       1  ZINC000962855438    0.0900
     37 H37        -3.7553    2.3398   47.5463 H       1  ZINC000962855438    0.1400
     38 H38        -1.4313    1.7640   46.9945 H       1  ZINC000962855438    0.1400
     39 H39         0.3538    2.1155   48.6557 H       1  ZINC000962855438    0.1300
     40 H40        -1.5517    4.6311   54.1641 H       1  ZINC000962855438    0.0700
     41 H41         0.1555    4.1668   53.9700 H       1  ZINC000962855438    0.0800
     42 H42        -0.5608    5.3925   52.8966 H       1  ZINC000962855438    0.0700
     43 H43         0.5712    2.3747   51.5651 H       1  ZINC000962855438    0.1000
     44 H44         0.4605    4.1291   51.2018 H       1  ZINC000962855438    0.1000
     45 H45        -4.8031    0.5363   49.9530 H       1  ZINC000962855438    0.0800
     46 H46        -4.2473    1.1426   51.5381 H       1  ZINC000962855438    0.0800
     47 H47        -6.4910   -0.9243   50.0432 H       1  ZINC000962855438    0.3900
     48 H48        -9.4485   -0.7984   55.7919 H       1  ZINC000962855438    0.0900
     49 H49       -10.5022    0.4657   56.5607 H       1  ZINC000962855438    0.1000
     50 H50       -11.3402   -2.3389   55.5228 H       1  ZINC000962855438    0.0900
     51 H51       -12.0325   -1.4143   56.9278 H       1  ZINC000962855438    0.0800
     52 H52       -12.9165    0.3414   55.4619 H       1  ZINC000962855438    0.1000
     53 H53       -12.9130   -0.9748   54.2101 H       1  ZINC000962855438    0.0800
@<TRIPOS>BOND
     1     1     2    1
     2     1    31    1
     3     1    32    1
     4     1    33    1
     5     2     3    1
     6     2    27    2
     7     3     4    2
     8     3     5   am
     9     5     6    1
    10     5    34    1
    11     6     7    1
    12     6    24    1
    13     6     8    1
    14     8     9    1
    15     8    35    1
    16     8    36    1
    17     9    10   am
    18     9    23    1
    19    10    11    2
    20    10    12    1
    21    12    17   ar
    22    12    13   ar
    23    13    14   ar
    24    13    37    1
    25    14    15   ar
    26    14    38    1
    27    15    16   ar
    28    15    39    1
    29    16    22    1
    30    16    17   ar
    31    17    18    1
    32    18    19    1
    33    19    20    1
    34    19    21    1
    35    19    22    1
    36    21    40    1
    37    21    41    1
    38    21    42    1
    39    22    43    1
    40    22    44    1
    41    23    24    1
    42    23    45    1
    43    23    46    1
    44    24    25    1
    45    24    26    1
    46    26    47    1
    47    27    30    1
    48    27    28    1
    49    28    29    1
    50    28    48    1
    51    28    49    1
    52    29    30    1
    53    29    50    1
    54    29    51    1
    55    30    52    1
    56    30    53    1
@<TRIPOS>SUBSTRUCTURE
     1 ZINC000962855438        1 TEMP              0 ****  ****    0 ROOT


##########                                Name:    ZINC000957079511
##########                DOCK_Rotatable_Bonds:                   8
##########                         Heavy_Atoms:                  25
##########                    Molecular_Weight:             362.453
##########                DOCK_Rotatable_Bonds:                   8
##########                       Formal_Charge:        -4.32134e-07
##########                     HBond_Acceptors:                   8
##########                        HBond_Donors:                   2
##########                         Heavy_Atoms:                  25
##########                          Grid_Score:          -31.956015
##########                     Grid_vdw_energy:          -30.438688
##########                      Grid_es_energy:           -1.517326
##########           Internal_energy_repulsive:            9.294832

@<TRIPOS>MOLECULE
ZINC000957079511
 47 49 1 0 0
SMALL
USER_CHARGES


@<TRIPOS>ATOM
      1 C1        -14.2009   -2.4439   59.8678 C.3     1  ZINC000957079511   -0.0700
      2 C2        -14.2092   -3.3006   58.6280 C.2     1  ZINC000957079511    0.0300
      3 C3        -13.5521   -3.0403   57.4818 C.2     1  ZINC000957079511   -0.0200
      4 C4        -12.6769   -1.8465   57.1993 C.3     1  ZINC000957079511   -0.0600
      5 C5        -11.4840   -1.8691   58.1199 C.2     1  ZINC000957079511    0.5100
      6 O6        -10.9546   -2.9234   58.4008 O.2     1  ZINC000957079511   -0.5200
      7 N7        -11.0055   -0.7175   58.6313 N.am    1  ZINC000957079511   -0.7200
      8 C8         -9.8470   -0.7396   59.5277 C.3     1  ZINC000957079511    0.1400
      9 H9         -9.2119   -1.6009   59.3207 H       1  ZINC000957079511    0.1100
     10 C10       -10.2925   -0.7220   61.0113 C.3     1  ZINC000957079511    0.0800
     11 N11        -9.1497   -0.1439   61.7416 N.am    1  ZINC000957079511   -0.6200
     12 C12        -8.8718   -0.3383   63.0460 C.2     1  ZINC000957079511    0.5400
     13 O13        -9.5944   -1.0396   63.7221 O.2     1  ZINC000957079511   -0.5100
     14 C14        -7.6632    0.3158   63.6645 C.3     1  ZINC000957079511    0.0500
     15 O15        -7.8930    1.7207   63.7884 O.3     1  ZINC000957079511   -0.2800
     16 C16        -6.9271    2.4530   64.4101 C.2     1  ZINC000957079511    0.1200
     17 C17        -7.0398    3.7691   64.6118 C.2     1  ZINC000957079511   -0.3300
     18 S18        -5.6060    4.3645   65.4383 S.3     1  ZINC000957079511    0.1300
     19 C19        -4.9124    2.7485   65.4656 C.2     1  ZINC000957079511   -0.1800
     20 C20        -5.7537    1.8892   64.8875 C.2     1  ZINC000957079511   -0.1400
     21 C21        -8.3631    0.6789   60.8112 C.3     1  ZINC000957079511    0.1100
     22 C22        -9.0411    0.5825   59.4277 C.3     1  ZINC000957079511   -0.1100
     23 H23        -9.7086    1.4289   59.2656 H       1  ZINC000957079511    0.0900
     24 C24        -7.9933    0.5012   58.3158 C.3     1  ZINC000957079511   -0.1400
     25 N25       -13.8314   -4.0687   56.6227 N.pl3   1  ZINC000957079511   -0.5600
     26 C26       -14.6502   -4.9223   57.2745 C.2     1  ZINC000957079511    0.2000
     27 N27       -14.8678   -4.4590   58.4749 N.2     1  ZINC000957079511   -0.4900
     28 H28       -13.3793   -2.7499   60.5154 H       1  ZINC000957079511    0.0700
     29 H29       -14.0718   -1.3988   59.5864 H       1  ZINC000957079511    0.0600
     30 H30       -15.1456   -2.5633   60.3984 H       1  ZINC000957079511    0.0700
     31 H31       -12.3375   -1.8815   56.1640 H       1  ZINC000957079511    0.1000
     32 H32       -13.2459   -0.9316   57.3642 H       1  ZINC000957079511    0.1200
     33 H33       -11.4282    0.1260   58.4057 H       1  ZINC000957079511    0.4000
     34 H34       -11.1768   -0.0967   61.1344 H       1  ZINC000957079511    0.0800
     35 H35       -10.4919   -1.7353   61.3596 H       1  ZINC000957079511    0.0800
     36 H36        -7.4840   -0.1114   64.6511 H       1  ZINC000957079511    0.0900
     37 H37        -6.7931    0.1445   63.0308 H       1  ZINC000957079511    0.0900
     38 H38        -7.8824    4.3749   64.3127 H       1  ZINC000957079511    0.1700
     39 H39        -3.9533    2.4904   65.8897 H       1  ZINC000957079511    0.1800
     40 H40        -5.5340    0.8361   64.7920 H       1  ZINC000957079511    0.1500
     41 H41        -8.3549    1.7152   61.1490 H       1  ZINC000957079511    0.0800
     42 H42        -7.3435    0.2983   60.7510 H       1  ZINC000957079511    0.0800
     43 H43        -7.3559   -0.3676   58.4802 H       1  ZINC000957079511    0.0600
     44 H44        -8.4932    0.4079   57.3517 H       1  ZINC000957079511    0.0600
     45 H45        -7.3845    1.4053   58.3235 H       1  ZINC000957079511    0.0700
     46 H46       -13.5028   -4.1662   55.7153 H       1  ZINC000957079511    0.4200
     47 H47       -15.0547   -5.8387   56.8705 H       1  ZINC000957079511    0.2100
@<TRIPOS>BOND
     1     1     2    1
     2     1    28    1
     3     1    29    1
     4     1    30    1
     5     2    27    1
     6     2     3    2
     7     3     4    1
     8     3    25    1
     9     4     5    1
    10     4    31    1
    11     4    32    1
    12     5     6    2
    13     5     7   am
    14     7     8    1
    15     7    33    1
    16     8     9    1
    17     8    22    1
    18     8    10    1
    19    10    11    1
    20    10    34    1
    21    10    35    1
    22    11    12   am
    23    11    21    1
    24    12    13    2
    25    12    14    1
    26    14    15    1
    27    14    36    1
    28    14    37    1
    29    15    16    1
    30    16    20    1
    31    16    17    2
    32    17    18    1
    33    17    38    1
    34    18    19    1
    35    19    20    2
    36    19    39    1
    37    20    40    1
    38    21    22    1
    39    21    41    1
    40    21    42    1
    41    22    23    1
    42    22    24    1
    43    24    43    1
    44    24    44    1
    45    24    45    1
    46    25    26    1
    47    25    46    1
    48    26    27    2
    49    26    47    1
@<TRIPOS>SUBSTRUCTURE
     1 ZINC000957079511        1 TEMP              0 ****  ****    0 ROOT


##########                                Name:    ZINC000052999724
##########                DOCK_Rotatable_Bonds:                   6
##########                         Heavy_Atoms:                  25
##########                    Molecular_Weight:             398.571
##########                DOCK_Rotatable_Bonds:                   6
##########                       Formal_Charge:           0.0399994
##########                     HBond_Acceptors:                   8
##########                        HBond_Donors:                   1
##########                         Heavy_Atoms:                  25
##########                          Grid_Score:          -31.950676
##########                     Grid_vdw_energy:          -30.867678
##########                      Grid_es_energy:           -1.082999
##########           Internal_energy_repulsive:           13.257019

@<TRIPOS>MOLECULE
ZINC000052999724
 47 49 1 0 0
SMALL
USER_CHARGES


@<TRIPOS>ATOM
      1 C1         -3.0816    2.9181   49.3391 C.3     1  ZINC000052999724   -0.1400
      2 C2         -4.1549    2.4967   50.3447 C.3     1  ZINC000052999724   -0.0400
      3 C3         -3.6721    2.8026   51.7639 C.3     1  ZINC000052999724   -0.1400
      4 C4         -5.4262    3.2583   50.0714 C.2     1  ZINC000052999724   -0.0400
      5 C5         -6.6681    2.6905   50.1231 C.2     1  ZINC000052999724   -0.2600
      6 C6         -6.9491    1.2883   50.4447 C.2     1  ZINC000052999724    0.6000
      7 O7         -6.8661    0.4370   49.5790 O.2     1  ZINC000052999724   -0.5200
      8 N8         -7.2996    0.9418   51.6992 N.am    1  ZINC000052999724   -0.6000
      9 C9         -7.4100    1.9590   52.7536 C.3     1  ZINC000052999724    0.1100
     10 C10        -8.7934    1.8488   53.4021 C.3     1  ZINC000052999724   -0.1400
     11 C11        -9.0120    0.4140   53.8876 C.3     1  ZINC000052999724    0.1500
     12 N12       -10.3209    0.3129   54.5379 N.am    1  ZINC000052999724   -1.1100
     13 S13       -10.4834   -0.5505   55.9417 S.o2    1  ZINC000052999724    2.7200
     14 O14       -11.8127   -0.3336   56.3946 O.2     1  ZINC000052999724   -0.9500
     15 O15        -9.9519   -1.8426   55.6819 O.2     1  ZINC000052999724   -0.9400
     16 C16        -9.4231    0.1926   57.1368 C.2     1  ZINC000052999724   -0.8000
     17 C17        -8.8138   -0.4538   58.1319 C.2     1  ZINC000052999724    0.0100
     18 C18        -8.0271    0.3406   58.9480 C.2     1  ZINC000052999724   -0.1600
     19 C19        -7.9973    1.6320   58.6157 C.2     1  ZINC000052999724   -0.1700
     20 S20        -9.0000    1.8988   57.1954 S.3     1  ZINC000052999724    0.2100
     21 C21        -8.9600   -0.5435   52.6948 C.3     1  ZINC000052999724   -0.1500
     22 C22        -7.5844   -0.4595   52.0368 C.3     1  ZINC000052999724    0.1100
     23 S23        -7.8747    3.9115   49.7426 S.3     1  ZINC000052999724    0.2100
     24 C24        -6.6715    5.1035   49.5367 C.2     1  ZINC000052999724   -0.2400
     25 C25        -5.4525    4.5949   49.7509 C.2     1  ZINC000052999724   -0.1300
     26 H26        -3.4255    2.7002   48.3280 H       1  ZINC000052999724    0.0600
     27 H27        -2.8927    3.9872   49.4360 H       1  ZINC000052999724    0.0600
     28 H28        -2.1621    2.3672   49.5368 H       1  ZINC000052999724    0.0600
     29 H29        -4.3438    1.4276   50.2478 H       1  ZINC000052999724    0.0800
     30 H30        -3.4832    3.8717   51.8609 H       1  ZINC000052999724    0.0600
     31 H31        -4.4368    2.5023   52.4805 H       1  ZINC000052999724    0.0600
     32 H32        -2.7526    2.2517   51.9617 H       1  ZINC000052999724    0.0600
     33 H33        -6.6394    1.7907   53.5058 H       1  ZINC000052999724    0.0800
     34 H34        -7.2884    2.9510   52.3185 H       1  ZINC000052999724    0.0900
     35 H35        -8.8539    2.5325   54.2488 H       1  ZINC000052999724    0.0900
     36 H36        -9.5596    2.1060   52.6708 H       1  ZINC000052999724    0.0800
     37 H37        -8.2310    0.1488   54.6001 H       1  ZINC000052999724    0.0900
     38 H38       -11.0922    0.7516   54.1463 H       1  ZINC000052999724    0.4200
     39 H39        -8.9262   -1.5163   58.2891 H       1  ZINC000052999724    0.1600
     40 H40        -7.4791   -0.0553   59.7903 H       1  ZINC000052999724    0.1500
     41 H41        -7.4398    2.3964   59.1368 H       1  ZINC000052999724    0.1800
     42 H42        -9.1390   -1.5624   53.0381 H       1  ZINC000052999724    0.1000
     43 H43        -9.7247   -0.2637   51.9701 H       1  ZINC000052999724    0.0800
     44 H44        -7.5756   -1.0643   51.1300 H       1  ZINC000052999724    0.1000
     45 H45        -6.8254   -0.8240   52.7291 H       1  ZINC000052999724    0.0800
     46 H46        -6.8679    6.1321   49.2725 H       1  ZINC000052999724    0.1700
     47 H47        -4.5543    5.1891   49.6699 H       1  ZINC000052999724    0.1400
@<TRIPOS>BOND
     1     1     2    1
     2     1    26    1
     3     1    27    1
     4     1    28    1
     5     2     3    1
     6     2     4    1
     7     2    29    1
     8     3    30    1
     9     3    31    1
    10     3    32    1
    11     4    25    1
    12     4     5    2
    13     5     6    1
    14     5    23    1
    15     6     7    2
    16     6     8   am
    17     8    22    1
    18     8     9    1
    19     9    10    1
    20     9    33    1
    21     9    34    1
    22    10    11    1
    23    10    35    1
    24    10    36    1
    25    11    12    1
    26    11    21    1
    27    11    37    1
    28    12    13   am
    29    12    38    1
    30    13    14    2
    31    13    15    2
    32    13    16    1
    33    16    20    1
    34    16    17    2
    35    17    18    1
    36    17    39    1
    37    18    19    2
    38    18    40    1
    39    19    20    1
    40    19    41    1
    41    21    22    1
    42    21    42    1
    43    21    43    1
    44    22    44    1
    45    22    45    1
    46    23    24    1
    47    24    25    2
    48    24    46    1
    49    25    47    1
@<TRIPOS>SUBSTRUCTURE
     1 ZINC000052999724        1 TEMP              0 ****  ****    0 ROOT


##########                                Name:    ZINC001310073555
##########                DOCK_Rotatable_Bonds:                  12
##########                         Heavy_Atoms:                  27
##########                    Molecular_Weight:             380.484
##########                DOCK_Rotatable_Bonds:                  12
##########                       Formal_Charge:          0.00999888
##########                     HBond_Acceptors:                   7
##########                        HBond_Donors:                   2
##########                         Heavy_Atoms:                  27
##########                          Grid_Score:          -31.945124
##########                     Grid_vdw_energy:          -30.719381
##########                      Grid_es_energy:           -1.225742
##########           Internal_energy_repulsive:           46.399033

@<TRIPOS>MOLECULE
ZINC001310073555
 59 59 1 0 0
SMALL
USER_CHARGES


@<TRIPOS>ATOM
      1 C1         -7.0543   -0.2777   52.1343 C.3     1  ZINC001310073555   -0.1600
      2 C2         -7.8860    1.0008   52.0139 C.3     1  ZINC001310073555   -0.1100
      3 C3         -6.9858    2.1546   51.5672 C.3     1  ZINC001310073555   -0.0600
      4 C4         -5.7668    2.2363   52.4881 C.3     1  ZINC001310073555   -0.1100
      5 C5         -5.4287    3.7039   52.7575 C.3     1  ZINC001310073555   -0.1600
      6 C6         -6.5233    1.9131   50.1289 C.3     1  ZINC001310073555    0.1600
      7 N7         -5.4577    2.8607   49.7931 N.am    1  ZINC001310073555   -0.7400
      8 C8         -4.2642    2.4073   49.3610 C.2     1  ZINC001310073555    0.7100
      9 O9         -4.0725    1.2118   49.2486 O.2     1  ZINC001310073555   -0.5700
     10 N10        -3.2834    3.2790   49.0536 N.am    1  ZINC001310073555   -0.6700
     11 C11        -2.0403    2.8069   48.6036 C.ar    1  ZINC001310073555    0.1000
     12 C12        -1.9573    2.0923   47.4185 C.ar    1  ZINC001310073555   -0.0400
     13 C13        -0.7334    1.6273   46.9752 C.ar    1  ZINC001310073555   -0.2200
     14 C14         0.4138    1.8746   47.7141 C.ar    1  ZINC001310073555    0.1500
     15 O15         1.6163    1.4159   47.2754 O.3     1  ZINC001310073555   -0.3200
     16 C16         1.9720    0.0798   47.6365 C.3     1  ZINC001310073555    0.0300
     17 C17         0.3358    2.5899   48.9001 C.ar    1  ZINC001310073555   -0.2300
     18 C18        -0.8883    3.0608   49.3444 C.ar    1  ZINC001310073555    0.1400
     19 O19        -0.9668    3.7621   50.5068 O.3     1  ZINC001310073555   -0.3100
     20 C20        -0.6617    3.0572   51.7117 C.3     1  ZINC001310073555    0.0300
     21 C21        -7.7556    3.4483   51.6369 C.2     1  ZINC001310073555    0.4800
     22 O22        -7.7487    4.2068   50.6963 O.2     1  ZINC001310073555   -0.5000
     23 O23        -8.4490    3.7579   52.7437 O.3     1  ZINC001310073555   -0.3400
     24 C24        -9.8467    4.1103   52.5689 C.3     1  ZINC001310073555    0.1200
     25 C25       -10.4646    3.2236   51.4860 C.3     1  ZINC001310073555   -0.1800
     26 C26       -10.5941    3.9011   53.8874 C.3     1  ZINC001310073555   -0.1400
     27 C27        -9.9540    5.5777   52.1491 C.3     1  ZINC001310073555   -0.1800
     28 H28        -7.6957   -1.0997   52.4525 H       1  ZINC001310073555    0.0600
     29 H29        -6.6118   -0.5158   51.1670 H       1  ZINC001310073555    0.0500
     30 H30        -6.2631   -0.1287   52.8690 H       1  ZINC001310073555    0.0600
     31 H31        -8.6772    0.8518   51.2792 H       1  ZINC001310073555    0.0800
     32 H32        -8.3285    1.2388   52.9812 H       1  ZINC001310073555    0.0800
     33 H33        -5.9891    1.7357   53.4305 H       1  ZINC001310073555    0.0800
     34 H34        -4.9168    1.7495   52.0097 H       1  ZINC001310073555    0.0800
     35 H35        -5.2064    4.2044   51.8151 H       1  ZINC001310073555    0.0600
     36 H36        -6.2786    4.1907   53.2359 H       1  ZINC001310073555    0.0500
     37 H37        -4.5602    3.7622   53.4136 H       1  ZINC001310073555    0.0600
     38 H38        -6.1468    0.8946   50.0345 H       1  ZINC001310073555    0.0800
     39 H39        -7.3631    2.0546   49.4486 H       1  ZINC001310073555    0.0800
     40 H40        -5.6110    3.8144   49.8817 H       1  ZINC001310073555    0.4000
     41 H41        -3.4362    4.2326   49.1434 H       1  ZINC001310073555    0.4100
     42 H42        -2.8495    1.8985   46.8414 H       1  ZINC001310073555    0.1500
     43 H43        -0.6704    1.0702   46.0521 H       1  ZINC001310073555    0.1300
     44 H44         2.0041   -0.0066   48.7227 H       1  ZINC001310073555    0.0600
     45 H45         1.2311   -0.6136   47.2386 H       1  ZINC001310073555    0.0600
     46 H46         2.9520   -0.1593   47.2238 H       1  ZINC001310073555    0.1000
     47 H47         1.2297    2.7820   49.4749 H       1  ZINC001310073555    0.1400
     48 H48        -0.7626    3.7310   52.5624 H       1  ZINC001310073555    0.1000
     49 H49        -1.3505    2.2203   51.8274 H       1  ZINC001310073555    0.0600
     50 H50         0.3607    2.6822   51.6644 H       1  ZINC001310073555    0.0600
     51 H51       -10.3882    2.1782   51.7850 H       1  ZINC001310073555    0.0600
     52 H52       -11.5139    3.4881   51.3548 H       1  ZINC001310073555    0.0700
     53 H53        -9.9321    3.3728   50.5466 H       1  ZINC001310073555    0.0800
     54 H54       -10.1539    4.5328   54.6588 H       1  ZINC001310073555    0.0700
     55 H55       -11.6434    4.1656   53.7562 H       1  ZINC001310073555    0.0800
     56 H56       -10.5177    2.8557   54.1864 H       1  ZINC001310073555    0.0700
     57 H57        -9.4215    5.7268   51.2098 H       1  ZINC001310073555    0.0800
     58 H58       -11.0032    5.8423   52.0180 H       1  ZINC001310073555    0.0700
     59 H59        -9.5138    6.2095   52.9207 H       1  ZINC001310073555    0.0600
@<TRIPOS>BOND
     1     1     2    1
     2     1    28    1
     3     1    29    1
     4     1    30    1
     5     2     3    1
     6     2    31    1
     7     2    32    1
     8     3     4    1
     9     3     6    1
    10     3    21    1
    11     4     5    1
    12     4    33    1
    13     4    34    1
    14     5    35    1
    15     5    36    1
    16     5    37    1
    17     6     7    1
    18     6    38    1
    19     6    39    1
    20     7     8   am
    21     7    40    1
    22     8     9    2
    23     8    10   am
    24    10    11    1
    25    10    41    1
    26    11    18   ar
    27    11    12   ar
    28    12    13   ar
    29    12    42    1
    30    13    14   ar
    31    13    43    1
    32    14    15    1
    33    14    17   ar
    34    15    16    1
    35    16    44    1
    36    16    45    1
    37    16    46    1
    38    17    18   ar
    39    17    47    1
    40    18    19    1
    41    19    20    1
    42    20    48    1
    43    20    49    1
    44    20    50    1
    45    21    22    2
    46    21    23    1
    47    23    24    1
    48    24    25    1
    49    24    26    1
    50    24    27    1
    51    25    51    1
    52    25    52    1
    53    25    53    1
    54    26    54    1
    55    26    55    1
    56    26    56    1
    57    27    57    1
    58    27    58    1
    59    27    59    1
@<TRIPOS>SUBSTRUCTURE
     1 ZINC001310073555        1 TEMP              0 ****  ****    0 ROOT


##########                                Name:    ZINC000501032137
##########                DOCK_Rotatable_Bonds:                  10
##########                         Heavy_Atoms:                  25
##########                    Molecular_Weight:             407.307
##########                DOCK_Rotatable_Bonds:                  10
##########                       Formal_Charge:           0.0099998
##########                     HBond_Acceptors:                   5
##########                        HBond_Donors:                   1
##########                         Heavy_Atoms:                  25
##########                          Grid_Score:          -31.923418
##########                     Grid_vdw_energy:          -32.086971
##########                      Grid_es_energy:            0.163553
##########           Internal_energy_repulsive:           16.044693

@<TRIPOS>MOLECULE
ZINC000501032137
 48 50 1 0 0
SMALL
USER_CHARGES


@<TRIPOS>ATOM
      1 C1        -10.6135    4.9635   50.0816 C.3     1  ZINC000501032137   -0.1500
      2 C2         -9.2945    4.9124   49.3078 C.3     1  ZINC000501032137   -0.1200
      3 C3         -8.2289    4.2221   50.1613 C.3     1  ZINC000501032137    0.0600
      4 O4         -6.9840    4.2207   49.4598 O.3     1  ZINC000501032137   -0.3800
      5 C5         -5.8761    3.7717   50.2428 C.3     1  ZINC000501032137    0.0500
      6 C6         -5.6325    2.2848   49.9763 C.3     1  ZINC000501032137    0.1600
      7 H7         -6.5207    1.8471   49.5207 H       1  ZINC000501032137    0.1000
      8 C8         -5.3328    1.5725   51.2967 C.3     1  ZINC000501032137   -0.0900
      9 C9         -6.6199    1.0757   51.9029 C.ar    1  ZINC000501032137   -0.0600
     10 C10        -7.2615   -0.0213   51.3593 C.ar    1  ZINC000501032137   -0.0900
     11 C11        -8.4425   -0.4775   51.9151 C.ar    1  ZINC000501032137   -0.1100
     12 C12        -8.9820    0.1632   53.0143 C.ar    1  ZINC000501032137   -0.0900
     13 C13        -8.3402    1.2613   53.5586 C.ar    1  ZINC000501032137   -0.0800
     14 Br14       -9.0780    2.1386   55.0627 Br      1  ZINC000501032137   -0.0600
     15 C15        -7.1559    1.7139   53.0058 C.ar    1  ZINC000501032137   -0.0800
     16 N16        -4.4925    2.1317   49.0691 N.am    1  ZINC000501032137   -0.7100
     17 C17        -3.2682    2.5478   49.4491 C.2     1  ZINC000501032137    0.6100
     18 O18        -3.1096    3.0491   50.5457 O.2     1  ZINC000501032137   -0.5200
     19 C19        -2.1213    2.3952   48.5356 C.2     1  ZINC000501032137   -0.0800
     20 C20        -0.8578    2.8575   48.7399 C.2     1  ZINC000501032137    0.0800
     21 C21        -0.3659    3.6223   49.9417 C.3     1  ZINC000501032137   -0.0800
     22 C22         0.0326    2.8145   51.1785 C.3     1  ZINC000501032137   -0.1700
     23 C23         1.1102    3.4758   50.3167 C.3     1  ZINC000501032137   -0.1500
     24 O24        -0.1328    2.5023   47.6673 O.3     1  ZINC000501032137   -0.2000
     25 C25        -0.9326    1.8365   46.8223 C.2     1  ZINC000501032137    0.1800
     26 N26        -2.1254    1.7605   47.3321 N.2     1  ZINC000501032137   -0.4600
     27 H27       -10.9367    3.9493   50.3160 H       1  ZINC000501032137    0.0600
     28 H28       -10.4707    5.5223   51.0064 H       1  ZINC000501032137    0.0600
     29 H29       -11.3727    5.4554   49.4735 H       1  ZINC000501032137    0.0600
     30 H30        -9.4374    4.3537   48.3828 H       1  ZINC000501032137    0.0700
     31 H31        -8.9713    5.9267   49.0733 H       1  ZINC000501032137    0.0700
     32 H32        -8.1145    4.7582   51.1034 H       1  ZINC000501032137    0.0500
     33 H33        -8.5337    3.1951   50.3624 H       1  ZINC000501032137    0.0500
     34 H34        -4.9860    4.3398   49.9724 H       1  ZINC000501032137    0.0700
     35 H35        -6.0946    3.9202   51.3003 H       1  ZINC000501032137    0.0600
     36 H36        -4.6689    0.7282   51.1115 H       1  ZINC000501032137    0.0900
     37 H37        -4.8523    2.2686   51.9841 H       1  ZINC000501032137    0.0800
     38 H38        -6.8404   -0.5221   50.5001 H       1  ZINC000501032137    0.1200
     39 H39        -8.9436   -1.3346   51.4899 H       1  ZINC000501032137    0.1300
     40 H40        -9.9047   -0.1931   53.4481 H       1  ZINC000501032137    0.1300
     41 H41        -6.6544    2.5708   53.4306 H       1  ZINC000501032137    0.1200
     42 H42        -4.6188    1.7306   48.1949 H       1  ZINC000501032137    0.4100
     43 H43        -0.8322    4.5941   50.1036 H       1  ZINC000501032137    0.1500
     44 H44        -0.1717    3.2549   52.1544 H       1  ZINC000501032137    0.1100
     45 H45        -0.0609    1.7301   51.1230 H       1  ZINC000501032137    0.1000
     46 H46         1.7256    2.8262   49.6942 H       1  ZINC000501032137    0.1000
     47 H47         1.6148    4.3510   50.7258 H       1  ZINC000501032137    0.1100
     48 H48        -0.6322    1.4252   45.8699 H       1  ZINC000501032137    0.2500
@<TRIPOS>BOND
     1     1     2    1
     2     1    27    1
     3     1    28    1
     4     1    29    1
     5     2     3    1
     6     2    30    1
     7     2    31    1
     8     3     4    1
     9     3    32    1
    10     3    33    1
    11     4     5    1
    12     5     6    1
    13     5    34    1
    14     5    35    1
    15     6     7    1
    16     6     8    1
    17     6    16    1
    18     8     9    1
    19     8    36    1
    20     8    37    1
    21     9    15   ar
    22     9    10   ar
    23    10    11   ar
    24    10    38    1
    25    11    12   ar
    26    11    39    1
    27    12    13   ar
    28    12    40    1
    29    13    14    1
    30    13    15   ar
    31    15    41    1
    32    16    17   am
    33    16    42    1
    34    17    18    2
    35    17    19    1
    36    19    26    1
    37    19    20    2
    38    20    21    1
    39    20    24    1
    40    21    23    1
    41    21    22    1
    42    21    43    1
    43    22    23    1
    44    22    44    1
    45    22    45    1
    46    23    46    1
    47    23    47    1
    48    24    25    1
    49    25    26    2
    50    25    48    1
@<TRIPOS>SUBSTRUCTURE
     1 ZINC000501032137        1 TEMP              0 ****  ****    0 ROOT


##########                                Name:    ZINC001067560454
##########                DOCK_Rotatable_Bonds:                   4
##########                         Heavy_Atoms:                  25
##########                    Molecular_Weight:             342.444
##########                DOCK_Rotatable_Bonds:                   4
##########                       Formal_Charge:          0.00999971
##########                     HBond_Acceptors:                   7
##########                        HBond_Donors:                   1
##########                         Heavy_Atoms:                  25
##########                          Grid_Score:          -31.916561
##########                     Grid_vdw_energy:          -30.939306
##########                      Grid_es_energy:           -0.977255
##########           Internal_energy_repulsive:           16.811710

@<TRIPOS>MOLECULE
ZINC001067560454
 51 54 1 0 0
SMALL
USER_CHARGES


@<TRIPOS>ATOM
      1 C1         -6.0491    3.9199   49.6321 C.3     1  ZINC001067560454   -0.1500
      2 C2         -6.0048    2.8405   50.7156 C.3     1  ZINC001067560454    0.1000
      3 H3         -5.4379    3.2078   51.5712 H       1  ZINC001067560454    0.0600
      4 C4         -7.4306    2.5013   51.1561 C.3     1  ZINC001067560454   -0.1200
      5 C5         -7.3823    1.4068   52.2257 C.3     1  ZINC001067560454    0.1400
      6 H6         -6.8444    1.7748   53.0995 H       1  ZINC001067560454    0.0900
      7 N7         -8.7468    1.0378   52.6105 N.am    1  ZINC001067560454   -0.7200
      8 C8         -9.0499    0.8361   53.9082 C.2     1  ZINC001067560454    0.5400
      9 O9         -8.1926    0.9588   54.7573 O.2     1  ZINC001067560454   -0.5300
     10 C10       -10.4540    0.4583   54.3042 C.3     1  ZINC001067560454   -0.1100
     11 C11       -11.4726    0.7060   53.1898 C.3     1  ZINC001067560454   -0.1300
     12 C12       -10.5602   -0.9383   54.9392 C.3     1  ZINC001067560454   -0.1200
     13 C13       -10.3050   -0.2558   56.2934 C.3     1  ZINC001067560454   -0.1400
     14 C14       -10.8830    1.0248   55.6680 C.3     1  ZINC001067560454   -0.1200
     15 C15        -6.6600    0.1815   51.6588 C.3     1  ZINC001067560454   -0.1200
     16 C16        -5.2566    0.5879   51.2037 C.3     1  ZINC001067560454    0.0600
     17 N17        -5.3571    1.6362   50.1803 N.3     1  ZINC001067560454   -0.4900
     18 C18        -4.1131    1.9353   49.6528 C.ar    1  ZINC001067560454    0.4400
     19 C19        -3.0841    2.4282   50.4729 C.ar    1  ZINC001067560454   -0.0800
     20 N20        -2.9743    2.7221   51.7907 N.2     1  ZINC001067560454   -0.4700
     21 C21        -1.7736    3.1587   52.0385 C.2     1  ZINC001067560454    0.2700
     22 N22        -1.0369    3.1720   50.8916 N.pl3   1  ZINC001067560454   -0.4800
     23 C23         0.3591    3.5974   50.7629 C.3     1  ZINC001067560454    0.0800
     24 C24        -1.8423    2.7133   49.8801 C.ar    1  ZINC001067560454    0.2800
     25 N25        -1.6866    2.5079   48.5764 N.ar    1  ZINC001067560454   -0.5200
     26 C26        -2.6795    2.0440   47.8470 C.ar    1  ZINC001067560454    0.3300
     27 N27        -3.8622    1.7578   48.3597 N.ar    1  ZINC001067560454   -0.5100
     28 H28        -6.6158    3.5528   48.7765 H       1  ZINC001067560454    0.0700
     29 H29        -6.5294    4.8140   50.0295 H       1  ZINC001067560454    0.0700
     30 H30        -5.0336    4.1619   49.3186 H       1  ZINC001067560454    0.0500
     31 H31        -7.9058    3.3917   51.5677 H       1  ZINC001067560454    0.0800
     32 H32        -8.0018    2.1467   50.2982 H       1  ZINC001067560454    0.0800
     33 H33        -9.4322    0.9385   51.9313 H       1  ZINC001067560454    0.4000
     34 H34       -11.1150    0.2554   52.2640 H       1  ZINC001067560454    0.0600
     35 H35       -12.4283    0.2603   53.4655 H       1  ZINC001067560454    0.0700
     36 H36       -11.6001    1.7790   53.0460 H       1  ZINC001067560454    0.0600
     37 H37       -11.5521   -1.3823   54.8540 H       1  ZINC001067560454    0.0900
     38 H38        -9.7638   -1.6176   54.6356 H       1  ZINC001067560454    0.0700
     39 H39       -10.9111   -0.6569   57.1056 H       1  ZINC001067560454    0.0700
     40 H40        -9.2488   -0.1777   56.5508 H       1  ZINC001067560454    0.0800
     41 H41       -10.3470    1.9302   55.9529 H       1  ZINC001067560454    0.0800
     42 H42       -11.9630    1.1175   55.7821 H       1  ZINC001067560454    0.0900
     43 H43        -6.5848   -0.5855   52.4295 H       1  ZINC001067560454    0.0800
     44 H44        -7.2192   -0.2096   50.8087 H       1  ZINC001067560454    0.0800
     45 H45        -4.6934    0.9660   52.0570 H       1  ZINC001067560454    0.0700
     46 H46        -4.7447   -0.2792   50.7863 H       1  ZINC001067560454    0.0800
     47 H47        -1.4140    3.4657   53.0095 H       1  ZINC001067560454    0.2300
     48 H48         1.0157    2.7416   50.9198 H       1  ZINC001067560454    0.0800
     49 H49         0.5244    4.0042   49.7653 H       1  ZINC001067560454    0.0900
     50 H50         0.5758    4.3629   51.5080 H       1  ZINC001067560454    0.0900
     51 H51        -2.5197    1.8884   46.7903 H       1  ZINC001067560454    0.2100
@<TRIPOS>BOND
     1     1     2    1
     2     1    28    1
     3     1    29    1
     4     1    30    1
     5     2     3    1
     6     2    17    1
     7     2     4    1
     8     4     5    1
     9     4    31    1
    10     4    32    1
    11     5     6    1
    12     5     7    1
    13     5    15    1
    14     7     8   am
    15     7    33    1
    16     8     9    2
    17     8    10    1
    18    10    14    1
    19    10    11    1
    20    10    12    1
    21    11    34    1
    22    11    35    1
    23    11    36    1
    24    12    13    1
    25    12    37    1
    26    12    38    1
    27    13    14    1
    28    13    39    1
    29    13    40    1
    30    14    41    1
    31    14    42    1
    32    15    16    1
    33    15    43    1
    34    15    44    1
    35    16    17    1
    36    16    45    1
    37    16    46    1
    38    17    18    1
    39    18    27   ar
    40    18    19   ar
    41    19    24   ar
    42    19    20    1
    43    20    21    2
    44    21    22    1
    45    21    47    1
    46    22    23    1
    47    22    24    1
    48    23    48    1
    49    23    49    1
    50    23    50    1
    51    24    25   ar
    52    25    26   ar
    53    26    27   ar
    54    26    51    1
@<TRIPOS>SUBSTRUCTURE
     1 ZINC001067560454        1 TEMP              0 ****  ****    0 ROOT


##########                                Name:    ZINC001289445798
##########                DOCK_Rotatable_Bonds:                  10
##########                         Heavy_Atoms:                  25
##########                    Molecular_Weight:             352.434
##########                DOCK_Rotatable_Bonds:                  10
##########                       Formal_Charge:          0.00999932
##########                     HBond_Acceptors:                   8
##########                        HBond_Donors:                   2
##########                         Heavy_Atoms:                  25
##########                          Grid_Score:          -31.907181
##########                     Grid_vdw_energy:          -29.764944
##########                      Grid_es_energy:           -2.142237
##########           Internal_energy_repulsive:           20.479362

@<TRIPOS>MOLECULE
ZINC001289445798
 53 54 1 0 0
SMALL
USER_CHARGES


@<TRIPOS>ATOM
      1 C1         -7.3473    3.8711   54.1139 C.3     1  ZINC001289445798   -0.1500
      2 C2         -7.1467    3.0637   52.8300 C.3     1  ZINC001289445798    0.0600
      3 O3         -5.8941    2.3784   52.8890 O.3     1  ZINC001289445798   -0.3700
      4 C4         -5.5303    1.7263   51.6707 C.3     1  ZINC001289445798    0.1100
      5 H5         -4.6048    1.1700   51.8186 H       1  ZINC001289445798    0.0700
      6 C6         -5.3264    2.7729   50.5734 C.3     1  ZINC001289445798   -0.1400
      7 C7         -3.9653    2.5913   49.9525 C.2     1  ZINC001289445798    0.5400
      8 O8         -3.8604    2.0669   48.8640 O.2     1  ZINC001289445798   -0.5200
      9 N9         -2.8646    3.0115   50.6070 N.am    1  ZINC001289445798   -0.6200
     10 C10        -2.8467    3.6531   51.9297 C.3     1  ZINC001289445798    0.1000
     11 C11        -1.3709    3.9319   52.2839 C.3     1  ZINC001289445798    0.1400
     12 H12        -1.0993    4.9557   52.0270 H       1  ZINC001289445798    0.1200
     13 N13        -1.1205    3.6718   53.7037 N.am    1  ZINC001289445798   -0.7200
     14 C14        -0.1330    4.3276   54.3449 C.2     1  ZINC001289445798    0.6000
     15 O15         0.5513    5.1342   53.7445 O.2     1  ZINC001289445798   -0.5100
     16 C16         0.1174    4.0677   55.7716 C.2     1  ZINC001289445798   -0.0500
     17 C17        -0.6337    3.2672   56.6146 C.2     1  ZINC001289445798   -0.1400
     18 C18         0.0006    3.3404   57.8568 C.2     1  ZINC001289445798    0.0000
     19 N19         1.0392    4.1265   57.7315 N.2     1  ZINC001289445798   -0.2700
     20 N20         1.1412    4.5636   56.5280 N.pl3   1  ZINC001289445798   -0.3800
     21 C21        -0.6027    2.9203   51.3928 C.3     1  ZINC001289445798    0.0700
     22 H22        -0.5708    1.9352   51.8583 H       1  ZINC001289445798    0.0900
     23 O23         0.7158    3.3901   51.1042 O.3     1  ZINC001289445798   -0.3700
     24 C24         1.6933    2.3527   51.0032 C.3     1  ZINC001289445798    0.0300
     25 C25        -1.4785    2.8979   50.1179 C.3     1  ZINC001289445798    0.0800
     26 C26        -6.6438    0.7627   51.2557 C.3     1  ZINC001289445798   -0.1100
     27 C27        -6.1666   -0.0922   50.0799 C.3     1  ZINC001289445798   -0.1500
     28 C28        -6.9987   -0.1450   52.4352 C.3     1  ZINC001289445798   -0.1500
     29 H29        -6.5406    4.5969   54.2164 H       1  ZINC001289445798    0.0600
     30 H30        -8.3027    4.3938   54.0689 H       1  ZINC001289445798    0.0700
     31 H31        -7.3415    3.1980   54.9711 H       1  ZINC001289445798    0.0600
     32 H32        -7.9534    2.3378   52.7274 H       1  ZINC001289445798    0.0500
     33 H33        -7.1525    3.7369   51.9727 H       1  ZINC001289445798    0.0500
     34 H34        -6.0937    2.6518   49.8086 H       1  ZINC001289445798    0.1100
     35 H35        -5.3984    3.7711   51.0054 H       1  ZINC001289445798    0.1000
     36 H36        -3.4029    4.5899   51.8947 H       1  ZINC001289445798    0.0800
     37 H37        -3.2864    2.9861   52.6712 H       1  ZINC001289445798    0.0800
     38 H38        -1.6654    3.0277   54.1823 H       1  ZINC001289445798    0.4000
     39 H39        -1.5216    2.7053   56.3647 H       1  ZINC001289445798    0.1700
     40 H40        -0.3112    2.8379   58.7605 H       1  ZINC001289445798    0.1900
     41 H41         1.8353    5.1602   56.2068 H       1  ZINC001289445798    0.4400
     42 H42         2.6667    2.7909   50.7826 H       1  ZINC001289445798    0.0900
     43 H43         1.7450    1.8091   51.9465 H       1  ZINC001289445798    0.0400
     44 H44         1.4140    1.6669   50.2033 H       1  ZINC001289445798    0.0500
     45 H45        -1.3386    1.9614   49.5780 H       1  ZINC001289445798    0.0900
     46 H46        -1.2373    3.7460   49.4771 H       1  ZINC001289445798    0.0900
     47 H47        -7.5244    1.3317   50.9573 H       1  ZINC001289445798    0.0800
     48 H48        -5.2861   -0.6613   50.3783 H       1  ZINC001289445798    0.0600
     49 H49        -6.9599   -0.7789   49.7843 H       1  ZINC001289445798    0.0600
     50 H50        -5.9138    0.5543   49.2396 H       1  ZINC001289445798    0.0600
     51 H51        -7.4304    0.4538   53.2373 H       1  ZINC001289445798    0.0600
     52 H52        -7.7210   -0.8947   52.1123 H       1  ZINC001289445798    0.0600
     53 H53        -6.0976   -0.6405   52.7964 H       1  ZINC001289445798    0.0500
@<TRIPOS>BOND
     1     1     2    1
     2     1    29    1
     3     1    30    1
     4     1    31    1
     5     2     3    1
     6     2    32    1
     7     2    33    1
     8     3     4    1
     9     4     5    1
    10     4     6    1
    11     4    26    1
    12     6     7    1
    13     6    34    1
    14     6    35    1
    15     7     8    2
    16     7     9   am
    17     9    25    1
    18     9    10    1
    19    10    11    1
    20    10    36    1
    21    10    37    1
    22    11    12    1
    23    11    13    1
    24    11    21    1
    25    13    14   am
    26    13    38    1
    27    14    15    2
    28    14    16    1
    29    16    20    1
    30    16    17    2
    31    17    18    1
    32    17    39    1
    33    18    19    2
    34    18    40    1
    35    19    20    1
    36    20    41    1
    37    21    22    1
    38    21    23    1
    39    21    25    1
    40    23    24    1
    41    24    42    1
    42    24    43    1
    43    24    44    1
    44    25    45    1
    45    25    46    1
    46    26    27    1
    47    26    28    1
    48    26    47    1
    49    27    48    1
    50    27    49    1
    51    27    50    1
    52    28    51    1
    53    28    52    1
    54    28    53    1
@<TRIPOS>SUBSTRUCTURE
     1 ZINC001289445798        1 TEMP              0 ****  ****    0 ROOT


##########                                Name:    ZINC000002634904
##########                DOCK_Rotatable_Bonds:                   7
##########                         Heavy_Atoms:                  31
##########                    Molecular_Weight:             423.498
##########                DOCK_Rotatable_Bonds:                   7
##########                       Formal_Charge:        -7.45058e-08
##########                     HBond_Acceptors:                   7
##########                        HBond_Donors:                   1
##########                         Heavy_Atoms:                  31
##########                          Grid_Score:          -31.900511
##########                     Grid_vdw_energy:          -30.495459
##########                      Grid_es_energy:           -1.405053
##########           Internal_energy_repulsive:            7.502272

@<TRIPOS>MOLECULE
ZINC000002634904
 48 51 1 0 0
SMALL
USER_CHARGES


@<TRIPOS>ATOM
      1 N1        -15.3850   -3.7654   59.5853 N.1     1  ZINC000002634904   -0.4100
      2 C2        -14.5889   -3.3000   58.9220 C.1     1  ZINC000002634904    0.2500
      3 C3        -13.5853   -2.7133   58.0859 C.ar    1  ZINC000002634904   -0.0400
      4 C4        -12.2565   -2.6625   58.5165 C.ar    1  ZINC000002634904   -0.0500
      5 C5        -11.2942   -2.0975   57.7099 C.ar    1  ZINC000002634904   -0.1400
      6 C6        -11.6431   -1.5776   56.4677 C.ar    1  ZINC000002634904    0.1700
      7 N7        -10.6651   -1.0059   55.6528 N.am    1  ZINC000002634904   -0.6700
      8 C8        -10.5425    0.3346   55.5865 C.2     1  ZINC000002634904    0.5400
      9 O9        -11.2823    1.0440   56.2348 O.2     1  ZINC000002634904   -0.5000
     10 C10        -9.4863    0.9520   54.7066 C.3     1  ZINC000002634904   -0.1700
     11 S11        -9.4240    0.0685   53.1281 S.3     1  ZINC000002634904    0.1300
     12 C12        -7.9422    0.7453   52.4568 C.ar    1  ZINC000002634904    0.2100
     13 N13        -7.2473    0.0441   51.5681 N.ar    1  ZINC000002634904   -0.2900
     14 N14        -6.1597    0.4984   51.0514 N.ar    1  ZINC000002634904   -0.1600
     15 C15        -5.6981    1.6953   51.3980 C.ar    1  ZINC000002634904    0.0600
     16 C16        -4.4464    2.2202   50.8040 C.ar    1  ZINC000002634904   -0.0500
     17 C17        -4.3000    2.2788   49.4184 C.ar    1  ZINC000002634904   -0.0800
     18 C18        -3.1318    2.7686   48.8710 C.ar    1  ZINC000002634904   -0.1200
     19 C19        -2.1071    3.2005   49.6938 C.ar    1  ZINC000002634904   -0.1000
     20 C20        -2.2464    3.1447   51.0690 C.ar    1  ZINC000002634904   -0.1200
     21 C21        -3.4123    2.6628   51.6281 C.ar    1  ZINC000002634904   -0.0800
     22 C22        -6.4184    2.4578   52.3394 C.ar    1  ZINC000002634904    0.2300
     23 C23        -5.9402    3.7972   52.7546 C.ar    1  ZINC000002634904   -0.0700
     24 C24        -6.1583    4.9037   51.9344 C.ar    1  ZINC000002634904   -0.0700
     25 C25        -5.7109    6.1487   52.3267 C.ar    1  ZINC000002634904   -0.1200
     26 C26        -5.0472    6.3004   53.5309 C.ar    1  ZINC000002634904   -0.0900
     27 C27        -4.8274    5.2065   54.3487 C.ar    1  ZINC000002634904   -0.1200
     28 C28        -5.2752    3.9574   53.9698 C.ar    1  ZINC000002634904   -0.0700
     29 N29        -7.5408    1.9498   52.8431 N.ar    1  ZINC000002634904   -0.4400
     30 C30       -12.9644   -1.6268   56.0356 C.ar    1  ZINC000002634904   -0.1200
     31 C31       -13.9312   -2.1951   56.8346 C.ar    1  ZINC000002634904   -0.0500
     32 H32       -11.9850   -3.0656   59.4810 H       1  ZINC000002634904    0.1400
     33 H33       -10.2674   -2.0576   58.0421 H       1  ZINC000002634904    0.1400
     34 H34       -10.0734   -1.5733   55.1344 H       1  ZINC000002634904    0.4200
     35 H35        -9.7295    1.9993   54.5273 H       1  ZINC000002634904    0.1300
     36 H36        -8.5168    0.8834   55.1998 H       1  ZINC000002634904    0.1300
     37 H37        -5.0991    1.9413   48.7751 H       1  ZINC000002634904    0.1300
     38 H38        -3.0173    2.8146   47.7981 H       1  ZINC000002634904    0.1300
     39 H39        -1.1943    3.5824   49.2607 H       1  ZINC000002634904    0.1300
     40 H40        -1.4429    3.4833   51.7063 H       1  ZINC000002634904    0.1300
     41 H41        -3.5201    2.6200   52.7019 H       1  ZINC000002634904    0.1200
     42 H42        -6.6760    4.7863   50.9938 H       1  ZINC000002634904    0.1300
     43 H43        -5.8790    7.0063   51.6921 H       1  ZINC000002634904    0.1300
     44 H44        -4.6990    7.2769   53.8337 H       1  ZINC000002634904    0.1300
     45 H45        -4.3084    5.3310   55.2875 H       1  ZINC000002634904    0.1300
     46 H46        -5.1030    3.1041   54.6091 H       1  ZINC000002634904    0.1300
     47 H47       -13.2315   -1.2225   55.0704 H       1  ZINC000002634904    0.1500
     48 H48       -14.9567   -2.2333   56.4984 H       1  ZINC000002634904    0.1400
@<TRIPOS>BOND
     1     1     2    3
     2     2     3    1
     3     3    31   ar
     4     3     4   ar
     5     4     5   ar
     6     4    32    1
     7     5     6   ar
     8     5    33    1
     9     6     7    1
    10     6    30   ar
    11     7     8   am
    12     7    34    1
    13     8     9    2
    14     8    10    1
    15    10    11    1
    16    10    35    1
    17    10    36    1
    18    11    12    1
    19    12    29   ar
    20    12    13   ar
    21    13    14   ar
    22    14    15   ar
    23    15    16    1
    24    15    22   ar
    25    16    21   ar
    26    16    17   ar
    27    17    18   ar
    28    17    37    1
    29    18    19   ar
    30    18    38    1
    31    19    20   ar
    32    19    39    1
    33    20    21   ar
    34    20    40    1
    35    21    41    1
    36    22    23    1
    37    22    29   ar
    38    23    28   ar
    39    23    24   ar
    40    24    25   ar
    41    24    42    1
    42    25    26   ar
    43    25    43    1
    44    26    27   ar
    45    26    44    1
    46    27    28   ar
    47    27    45    1
    48    28    46    1
    49    30    31   ar
    50    30    47    1
    51    31    48    1
@<TRIPOS>SUBSTRUCTURE
     1 ZINC000002634904        1 TEMP              0 ****  ****    0 ROOT


##########                                Name:    ZINC001119787528
##########                DOCK_Rotatable_Bonds:                   6
##########                         Heavy_Atoms:                  27
##########                    Molecular_Weight:             362.434
##########                DOCK_Rotatable_Bonds:                   6
##########                       Formal_Charge:          -0.0199998
##########                     HBond_Acceptors:                   7
##########                        HBond_Donors:                   1
##########                         Heavy_Atoms:                  27
##########                          Grid_Score:          -31.898863
##########                     Grid_vdw_energy:          -31.364761
##########                      Grid_es_energy:           -0.534102
##########           Internal_energy_repulsive:           10.753707

@<TRIPOS>MOLECULE
ZINC001119787528
 49 52 1 0 0
SMALL
USER_CHARGES


@<TRIPOS>ATOM
      1 C1          4.1245    1.9463   50.5725 C.3     1  ZINC001119787528   -0.1700
      2 C2          3.2141    0.7209   50.4710 C.3     1  ZINC001119787528    0.1000
      3 N3          2.3787    0.8312   49.2725 N.pl3   1  ZINC001119787528   -0.4500
      4 C4          2.5861    0.2116   48.0878 C.2     1  ZINC001119787528    0.1800
      5 N5          1.6334    0.5554   47.2607 N.2     1  ZINC001119787528   -0.4800
      6 C6          0.7987    1.3929   47.8799 C.2     1  ZINC001119787528   -0.0200
      7 C7          1.2432    1.5723   49.1423 C.2     1  ZINC001119787528   -0.0100
      8 C8          0.5749    2.4419   50.1746 C.3     1  ZINC001119787528   -0.0600
      9 C9         -0.3822    3.4071   49.4632 C.3     1  ZINC001119787528    0.1400
     10 N10        -1.1575    2.6634   48.4592 N.am    1  ZINC001119787528   -0.6200
     11 C11        -2.4944    2.5370   48.5741 C.2     1  ZINC001119787528    0.7200
     12 O12        -3.1207    1.9187   47.7355 O.2     1  ZINC001119787528   -0.5600
     13 N13        -3.1368    3.0960   49.6188 N.am    1  ZINC001119787528   -0.6600
     14 C14        -4.5156    2.9657   49.7373 C.ar    1  ZINC001119787528    0.4200
     15 C15        -5.0923    1.7159   49.9642 C.ar    1  ZINC001119787528   -0.2500
     16 C16        -6.4677    1.6384   50.0752 C.ar    1  ZINC001119787528    0.1600
     17 N17        -7.1883    2.7447   49.9634 N.ar    1  ZINC001119787528   -0.5300
     18 C18        -6.6127    3.9108   49.7490 C.ar    1  ZINC001119787528    0.3500
     19 C19        -7.4738    5.1418   49.6293 C.3     1  ZINC001119787528   -0.0100
     20 C20        -8.9267    4.7460   49.6878 C.ar    1  ZINC001119787528   -0.0800
     21 C21        -9.6515    4.6028   48.5195 C.ar    1  ZINC001119787528   -0.1000
     22 C22       -10.9843    4.2398   48.5730 C.ar    1  ZINC001119787528   -0.1200
     23 C23       -11.5922    4.0197   49.7948 C.ar    1  ZINC001119787528   -0.1200
     24 C24       -10.8670    4.1620   50.9631 C.ar    1  ZINC001119787528   -0.1200
     25 C25        -9.5332    4.5208   50.9094 C.ar    1  ZINC001119787528   -0.1000
     26 N26        -5.3052    4.0308   49.6417 N.ar    1  ZINC001119787528   -0.5500
     27 C27        -0.4398    2.0557   47.3251 C.3     1  ZINC001119787528    0.2000
     28 H28         4.7461    1.8643   51.4641 H       1  ZINC001119787528    0.0800
     29 H29         4.7612    2.0001   49.6893 H       1  ZINC001119787528    0.0600
     30 H30         3.5149    2.8476   50.6362 H       1  ZINC001119787528    0.0600
     31 H31         3.8237   -0.1805   50.4073 H       1  ZINC001119787528    0.0900
     32 H32         2.5773    0.6673   51.3541 H       1  ZINC001119787528    0.1000
     33 H33         3.4041   -0.4566   47.8621 H       1  ZINC001119787528    0.2100
     34 H34         0.0141    1.8178   50.8703 H       1  ZINC001119787528    0.0800
     35 H35         1.3300    3.0103   50.7176 H       1  ZINC001119787528    0.0900
     36 H36        -1.0606    3.8507   50.1920 H       1  ZINC001119787528    0.1100
     37 H37         0.1913    4.1930   48.9719 H       1  ZINC001119787528    0.0800
     38 H38        -2.6370    3.5894   50.2878 H       1  ZINC001119787528    0.4200
     39 H39        -4.4793    0.8309   50.0506 H       1  ZINC001119787528    0.1800
     40 H40        -6.9493    0.6877   50.2505 H       1  ZINC001119787528    0.1700
     41 H41        -7.2496    5.8232   50.4500 H       1  ZINC001119787528    0.1000
     42 H42        -7.2700    5.6369   48.6800 H       1  ZINC001119787528    0.1000
     43 H43        -9.1766    4.7748   47.5648 H       1  ZINC001119787528    0.1300
     44 H44       -11.5508    4.1286   47.6602 H       1  ZINC001119787528    0.1200
     45 H45       -12.6336    3.7368   49.8367 H       1  ZINC001119787528    0.1200
     46 H46       -11.3421    3.9904   51.9178 H       1  ZINC001119787528    0.1200
     47 H47        -8.9668    4.6320   51.8221 H       1  ZINC001119787528    0.1200
     48 H48        -0.1528    2.8278   46.6112 H       1  ZINC001119787528    0.0900
     49 H49        -1.0750    1.3162   46.8376 H       1  ZINC001119787528    0.0900
@<TRIPOS>BOND
     1     1     2    1
     2     1    28    1
     3     1    29    1
     4     1    30    1
     5     2     3    1
     6     2    31    1
     7     2    32    1
     8     3     7    1
     9     3     4    1
    10     4     5    2
    11     4    33    1
    12     5     6    1
    13     6    27    1
    14     6     7    2
    15     7     8    1
    16     8     9    1
    17     8    34    1
    18     8    35    1
    19     9    10    1
    20     9    36    1
    21     9    37    1
    22    10    11   am
    23    10    27    1
    24    11    12    2
    25    11    13   am
    26    13    14    1
    27    13    38    1
    28    14    26   ar
    29    14    15   ar
    30    15    16   ar
    31    15    39    1
    32    16    17   ar
    33    16    40    1
    34    17    18   ar
    35    18    19    1
    36    18    26   ar
    37    19    20    1
    38    19    41    1
    39    19    42    1
    40    20    25   ar
    41    20    21   ar
    42    21    22   ar
    43    21    43    1
    44    22    23   ar
    45    22    44    1
    46    23    24   ar
    47    23    45    1
    48    24    25   ar
    49    24    46    1
    50    25    47    1
    51    27    48    1
    52    27    49    1
@<TRIPOS>SUBSTRUCTURE
     1 ZINC001119787528        1 TEMP              0 ****  ****    0 ROOT


##########                                Name:    ZINC000821214121
##########                DOCK_Rotatable_Bonds:                  10
##########                         Heavy_Atoms:                  23
##########                    Molecular_Weight:             338.434
##########                DOCK_Rotatable_Bonds:                  10
##########                       Formal_Charge:          0.00999954
##########                     HBond_Acceptors:                   9
##########                        HBond_Donors:                   3
##########                         Heavy_Atoms:                  23
##########                          Grid_Score:          -31.887119
##########                     Grid_vdw_energy:          -31.409216
##########                      Grid_es_energy:           -0.477903
##########           Internal_energy_repulsive:           10.184317

@<TRIPOS>MOLECULE
ZINC000821214121
 45 46 1 0 0
SMALL
USER_CHARGES


@<TRIPOS>ATOM
      1 C1         -5.8800    5.0827   50.8847 C.3     1  ZINC000821214121   -0.1500
      2 C2         -6.9212    3.9924   50.6238 C.3     1  ZINC000821214121    0.0500
      3 N3         -6.2650    2.6781   50.6260 N.3     1  ZINC000821214121   -0.5200
      4 C4         -7.0764    1.6858   51.3436 C.3     1  ZINC000821214121    0.0600
      5 C5         -6.2297    0.4433   51.6269 C.3     1  ZINC000821214121   -0.1200
      6 C6         -7.0376   -0.5422   52.4736 C.3     1  ZINC000821214121    0.0800
      7 O7         -8.2295   -0.9057   51.7741 O.3     1  ZINC000821214121   -0.5700
      8 C8         -5.9767    2.2313   49.2567 C.3     1  ZINC000821214121    0.0400
      9 C9         -4.5001    1.9653   49.1153 C.2     1  ZINC000821214121    0.5000
     10 O10        -4.0958    0.8258   49.0168 O.2     1  ZINC000821214121   -0.4800
     11 N11        -3.6287    2.9932   49.0983 N.am    1  ZINC000821214121   -0.6300
     12 C12        -2.2633    2.7473   48.9659 C.2     1  ZINC000821214121    0.0800
     13 C13        -1.3257    2.9684   49.9303 C.2     1  ZINC000821214121   -0.1000
     14 C14        -1.6577    3.5112   51.2694 C.2     1  ZINC000821214121    0.2900
     15 N15        -1.5500    4.7707   51.6517 N.2     1  ZINC000821214121   -0.3300
     16 N16        -1.9752    4.8044   52.9899 N.pl3   1  ZINC000821214121   -0.2900
     17 N17        -2.3011    3.6004   53.3157 N.2     1  ZINC000821214121    0.0200
     18 N18        -2.1274    2.8167   52.3115 N.2     1  ZINC000821214121   -0.2900
     19 C19        -0.0261    2.6388   49.5456 C.2     1  ZINC000821214121   -0.0500
     20 C20         1.1567    2.8071   50.4642 C.3     1  ZINC000821214121   -0.1000
     21 C21         0.0921    2.1652   48.3099 C.2     1  ZINC000821214121   -0.2400
     22 C22         1.3891    1.7415   47.6699 C.3     1  ZINC000821214121   -0.0800
     23 S23        -1.4821    2.0963   47.5313 S.3     1  ZINC000821214121    0.2600
     24 H24        -5.3431    4.8592   51.8067 H       1  ZINC000821214121    0.0700
     25 H25        -5.1756    5.1188   50.0537 H       1  ZINC000821214121    0.0500
     26 H26        -6.3795    6.0468   50.9799 H       1  ZINC000821214121    0.0600
     27 H27        -7.6806    4.0207   51.4052 H       1  ZINC000821214121    0.0900
     28 H28        -7.3904    4.1626   49.6548 H       1  ZINC000821214121    0.0400
     29 H29        -7.4227    2.1120   52.2852 H       1  ZINC000821214121    0.0400
     30 H30        -7.9353    1.4085   50.7325 H       1  ZINC000821214121    0.0800
     31 H31        -5.9518   -0.0296   50.6850 H       1  ZINC000821214121    0.0800
     32 H32        -5.3287    0.7332   52.1676 H       1  ZINC000821214121    0.0700
     33 H33        -6.4403   -1.4343   52.6616 H       1  ZINC000821214121    0.0400
     34 H34        -7.3013   -0.0749   53.4223 H       1  ZINC000821214121    0.0500
     35 H35        -8.8057   -0.1581   51.5638 H       1  ZINC000821214121    0.3800
     36 H36        -6.5322    1.3169   49.0482 H       1  ZINC000821214121    0.0700
     37 H37        -6.2754    3.0066   48.5510 H       1  ZINC000821214121    0.1200
     38 H38        -3.9518    3.9044   49.1782 H       1  ZINC000821214121    0.4200
     39 H39        -2.0157    5.5868   53.5618 H       1  ZINC000821214121    0.4700
     40 H40         1.3039    1.8923   51.0382 H       1  ZINC000821214121    0.0700
     41 H41         2.0492    3.0129   49.8733 H       1  ZINC000821214121    0.0700
     42 H42         0.9725    3.6378   51.1453 H       1  ZINC000821214121    0.0900
     43 H43         1.5639    0.6842   47.8686 H       1  ZINC000821214121    0.0700
     44 H44         1.3335    1.9046   46.5936 H       1  ZINC000821214121    0.0700
     45 H45         2.2078    2.3294   48.0847 H       1  ZINC000821214121    0.0800
@<TRIPOS>BOND
     1     1     2    1
     2     1    24    1
     3     1    25    1
     4     1    26    1
     5     2     3    1
     6     2    27    1
     7     2    28    1
     8     3     4    1
     9     3     8    1
    10     4     5    1
    11     4    29    1
    12     4    30    1
    13     5     6    1
    14     5    31    1
    15     5    32    1
    16     6     7    1
    17     6    33    1
    18     6    34    1
    19     7    35    1
    20     8     9    1
    21     8    36    1
    22     8    37    1
    23     9    10    2
    24     9    11   am
    25    11    12    1
    26    11    38    1
    27    12    23    1
    28    12    13    2
    29    13    14    1
    30    13    19    1
    31    14    18    1
    32    14    15    2
    33    15    16    1
    34    16    17    1
    35    16    39    1
    36    17    18    2
    37    19    20    1
    38    19    21    2
    39    20    40    1
    40    20    41    1
    41    20    42    1
    42    21    22    1
    43    21    23    1
    44    22    43    1
    45    22    44    1
    46    22    45    1
@<TRIPOS>SUBSTRUCTURE
     1 ZINC000821214121        1 TEMP              0 ****  ****    0 ROOT


##########                                Name:    ZINC000274225049
##########                DOCK_Rotatable_Bonds:                   6
##########                         Heavy_Atoms:                  25
##########                    Molecular_Weight:             380.895
##########                DOCK_Rotatable_Bonds:                   6
##########                       Formal_Charge:           0.0200006
##########                     HBond_Acceptors:                   7
##########                        HBond_Donors:                   2
##########                         Heavy_Atoms:                  25
##########                          Grid_Score:          -31.879047
##########                     Grid_vdw_energy:          -29.564045
##########                      Grid_es_energy:           -2.315001
##########           Internal_energy_repulsive:           12.970213

@<TRIPOS>MOLECULE
ZINC000274225049
 46 48 1 0 0
SMALL
USER_CHARGES


@<TRIPOS>ATOM
      1 C1         -4.5006    3.6919   49.8018 C.3     1  ZINC000274225049   -0.1600
      2 C2         -3.7977    2.3604   50.0734 C.3     1  ZINC000274225049    0.2000
      3 H3         -3.9658    1.6833   49.2359 H       1  ZINC000274225049    0.1100
      4 N4         -4.3363    1.7648   51.2986 N.am    1  ZINC000274225049   -0.7400
      5 C5         -5.4311    0.9807   51.2419 C.2     1  ZINC000274225049    0.7100
      6 O6         -5.9708    0.7666   50.1737 O.2     1  ZINC000274225049   -0.5800
      7 N7         -5.9276    0.4340   52.3694 N.am    1  ZINC000274225049   -0.7500
      8 C8         -7.1165   -0.4196   52.3075 C.3     1  ZINC000274225049    0.1500
      9 C9         -8.3649    0.4247   52.5712 C.3     1  ZINC000274225049   -0.1000
     10 H10        -8.4781    1.1770   51.7906 H       1  ZINC000274225049    0.1000
     11 C11        -8.2600    1.1049   53.9475 C.3     1  ZINC000274225049   -0.1100
     12 C12        -9.6464    1.6590   54.3320 C.3     1  ZINC000274225049   -0.5900
     13 S13       -10.8463    0.5748   53.4771 S.o2    1  ZINC000274225049    2.3900
     14 O14       -11.5482   -0.2010   54.4385 O.2     1  ZINC000274225049   -0.9300
     15 O15       -11.5679    1.3354   52.5179 O.2     1  ZINC000274225049   -0.9300
     16 C16        -9.6203   -0.4840   52.6188 C.3     1  ZINC000274225049   -0.5900
     17 C17        -2.3186    2.5977   50.2383 C.ar    1  ZINC000274225049   -0.0700
     18 C18        -1.4522    2.4416   49.1433 C.ar    1  ZINC000274225049   -0.0300
     19 C19        -1.9352    2.0642   47.8785 C.ar    1  ZINC000274225049   -0.1100
     20 C20        -1.0664    1.9229   46.8407 C.ar    1  ZINC000274225049   -0.1100
     21 C21         0.2986    2.1469   47.0119 C.ar    1  ZINC000274225049   -0.1100
     22 C22         0.8022    2.5136   48.2219 C.ar    1  ZINC000274225049   -0.1000
     23 C23        -0.0642    2.6694   49.3173 C.ar    1  ZINC000274225049   -0.0400
     24 C24         0.4188    3.0475   50.5825 C.ar    1  ZINC000274225049   -0.0300
     25 Cl25        2.1147    3.3329   50.8199 Cl      1  ZINC000274225049   -0.0600
     26 C26        -0.4516    3.1891   51.6211 C.ar    1  ZINC000274225049   -0.1000
     27 C27        -1.8163    2.9699   51.4477 C.ar    1  ZINC000274225049   -0.1000
     28 H28        -5.5704    3.5203   49.6824 H       1  ZINC000274225049    0.0700
     29 H29        -4.3325    4.3690   50.6393 H       1  ZINC000274225049    0.0700
     30 H30        -4.0998    4.1350   48.8901 H       1  ZINC000274225049    0.0800
     31 H31        -3.9051    1.9347   52.1507 H       1  ZINC000274225049    0.4000
     32 H32        -5.4977    0.6059   53.2218 H       1  ZINC000274225049    0.4000
     33 H33        -7.1869   -0.8735   51.3190 H       1  ZINC000274225049    0.0800
     34 H34        -7.0413   -1.2025   53.0623 H       1  ZINC000274225049    0.0800
     35 H35        -7.9368    0.3774   54.6921 H       1  ZINC000274225049    0.0900
     36 H36        -7.5397    1.9214   53.8988 H       1  ZINC000274225049    0.0900
     37 H37        -9.7896    1.6049   55.4112 H       1  ZINC000274225049    0.1400
     38 H38        -9.7522    2.6872   53.9863 H       1  ZINC000274225049    0.1400
     39 H39        -9.9591   -0.7306   51.6126 H       1  ZINC000274225049    0.1400
     40 H40        -9.4206   -1.3885   53.1935 H       1  ZINC000274225049    0.1400
     41 H41        -2.9904    1.8869   47.7312 H       1  ZINC000274225049    0.1300
     42 H42        -1.4400    1.6325   45.8699 H       1  ZINC000274225049    0.1300
     43 H43         0.9667    2.0276   46.1718 H       1  ZINC000274225049    0.1300
     44 H44         1.8622    2.6835   48.3398 H       1  ZINC000274225049    0.1300
     45 H45        -0.0785    3.4793   52.5922 H       1  ZINC000274225049    0.1300
     46 H46        -2.4849    3.0889   52.2874 H       1  ZINC000274225049    0.1300
@<TRIPOS>BOND
     1     1     2    1
     2     1    28    1
     3     1    29    1
     4     1    30    1
     5     2     3    1
     6     2     4    1
     7     2    17    1
     8     4     5   am
     9     4    31    1
    10     5     6    2
    11     5     7   am
    12     7     8    1
    13     7    32    1
    14     8     9    1
    15     8    33    1
    16     8    34    1
    17     9    10    1
    18     9    16    1
    19     9    11    1
    20    11    12    1
    21    11    35    1
    22    11    36    1
    23    12    13    1
    24    12    37    1
    25    12    38    1
    26    13    14    2
    27    13    15    2
    28    13    16    1
    29    16    39    1
    30    16    40    1
    31    17    27   ar
    32    17    18   ar
    33    18    23   ar
    34    18    19   ar
    35    19    20   ar
    36    19    41    1
    37    20    21   ar
    38    20    42    1
    39    21    22   ar
    40    21    43    1
    41    22    23   ar
    42    22    44    1
    43    23    24   ar
    44    24    25    1
    45    24    26   ar
    46    26    27   ar
    47    26    45    1
    48    27    46    1
@<TRIPOS>SUBSTRUCTURE
     1 ZINC000274225049        1 TEMP              0 ****  ****    0 ROOT


##########                                Name:    ZINC000550952205
##########                DOCK_Rotatable_Bonds:                   7
##########                         Heavy_Atoms:                  28
##########                    Molecular_Weight:             407.484
##########                DOCK_Rotatable_Bonds:                   7
##########                       Formal_Charge:        -2.68221e-07
##########                     HBond_Acceptors:                   8
##########                        HBond_Donors:                   2
##########                         Heavy_Atoms:                  28
##########                          Grid_Score:          -31.875927
##########                     Grid_vdw_energy:          -31.699543
##########                      Grid_es_energy:           -0.176384
##########           Internal_energy_repulsive:            8.724376

@<TRIPOS>MOLECULE
ZINC000550952205
 51 54 1 0 0
SMALL
USER_CHARGES


@<TRIPOS>ATOM
      1 O1        -10.5588    0.7990   59.5720 O.2     1  ZINC000550952205   -0.5100
      2 C2         -9.4352    0.3442   59.5127 C.2     1  ZINC000550952205    0.5100
      3 N3         -8.9209   -0.3206   60.5663 N.am    1  ZINC000550952205   -0.7000
      4 C4         -9.7161   -0.4891   61.7852 C.3     1  ZINC000550952205    0.1200
      5 C5         -9.1055    0.3467   62.9119 C.3     1  ZINC000550952205   -0.0900
      6 H6         -8.0273    0.1893   62.9417 H       1  ZINC000550952205    0.1000
      7 C7         -9.3971    1.8039   62.6755 C.3     1  ZINC000550952205   -0.1300
      8 C8         -8.2561    2.7194   63.1587 C.3     1  ZINC000550952205   -0.1200
      9 C9         -7.6724    2.2812   64.5155 C.3     1  ZINC000550952205   -0.1300
     10 C10        -8.7373    1.8595   65.4913 C.3     1  ZINC000550952205   -0.1500
     11 C11        -8.9112    0.3299   65.3961 C.3     1  ZINC000550952205    0.3000
     12 F12        -7.6498   -0.2625   65.2725 F       1  ZINC000550952205   -0.2000
     13 F13        -9.5148   -0.1315   66.5707 F       1  ZINC000550952205   -0.2000
     14 C14        -9.7272   -0.0690   64.2608 C.3     1  ZINC000550952205   -0.1700
     15 C15        -8.6248    0.5159   58.2704 C.2     1  ZINC000550952205    0.5100
     16 O16        -7.5138    0.0320   58.1987 O.2     1  ZINC000550952205   -0.4900
     17 N17        -9.1268    1.2081   57.2286 N.am    1  ZINC000550952205   -0.6400
     18 C18        -8.3681    1.3688   56.0656 C.ar    1  ZINC000550952205    0.1500
     19 C19        -7.1772    2.0923   56.1035 C.ar    1  ZINC000550952205   -0.1200
     20 C20        -6.4282    2.2569   54.9793 C.ar    1  ZINC000550952205   -0.0400
     21 C21        -6.8437    1.6978   53.7535 C.ar    1  ZINC000550952205    0.0800
     22 N22        -6.2533    1.7462   52.5436 N.2     1  ZINC000550952205   -0.4700
     23 C23        -6.8338    1.1521   51.5711 C.2     1  ZINC000550952205    0.1200
     24 C24        -6.3015    1.1142   50.1618 C.3     1  ZINC000550952205   -0.1100
     25 C25        -5.1119    2.0178   49.8314 C.3     1  ZINC000550952205   -0.1500
     26 C26        -4.9148    0.5049   49.9465 C.3     1  ZINC000550952205   -0.1500
     27 S27        -8.2859    0.4068   52.0691 S.3     1  ZINC000550952205    0.1200
     28 C28        -8.0398    0.9714   53.7188 C.ar    1  ZINC000550952205   -0.1700
     29 C29        -8.7953    0.8050   54.8763 C.ar    1  ZINC000550952205   -0.0700
     30 H30        -8.0243   -0.6875   60.5176 H       1  ZINC000550952205    0.4200
     31 H31       -10.7383   -0.1587   61.6007 H       1  ZINC000550952205    0.0800
     32 H32        -9.7203   -1.5401   62.0739 H       1  ZINC000550952205    0.0800
     33 H33        -9.5500    1.9642   61.6082 H       1  ZINC000550952205    0.0700
     34 H34       -10.3118    2.0710   63.2048 H       1  ZINC000550952205    0.0700
     35 H35        -7.4598    2.7115   62.4144 H       1  ZINC000550952205    0.0700
     36 H36        -8.6370    3.7365   63.2519 H       1  ZINC000550952205    0.0700
     37 H37        -6.9919    1.4454   64.3532 H       1  ZINC000550952205    0.0800
     38 H38        -7.1114    3.1123   64.9430 H       1  ZINC000550952205    0.0700
     39 H39        -8.4356    2.1314   66.5028 H       1  ZINC000550952205    0.0900
     40 H40        -9.6777    2.3511   65.2421 H       1  ZINC000550952205    0.1000
     41 H41       -10.7083    0.3975   64.3501 H       1  ZINC000550952205    0.1000
     42 H42        -9.8506   -1.1519   64.2780 H       1  ZINC000550952205    0.1000
     43 H43       -10.0146    1.5946   57.2858 H       1  ZINC000550952205    0.4300
     44 H44        -6.8455    2.5271   57.0349 H       1  ZINC000550952205    0.1400
     45 H45        -5.5083    2.8207   55.0264 H       1  ZINC000550952205    0.1400
     46 H46        -7.0468    0.9574   49.3819 H       1  ZINC000550952205    0.1300
     47 H47        -5.0743    2.4558   48.8339 H       1  ZINC000550952205    0.1000
     48 H48        -4.7142    2.6396   50.6334 H       1  ZINC000550952205    0.1100
     49 H49        -4.3873    0.1314   50.8242 H       1  ZINC000550952205    0.1000
     50 H50        -4.7474   -0.0524   49.0247 H       1  ZINC000550952205    0.1100
     51 H51        -9.7146    0.2391   54.8454 H       1  ZINC000550952205    0.1400
@<TRIPOS>BOND
     1     1     2    2
     2     2     3   am
     3     2    15    1
     4     3     4    1
     5     3    30    1
     6     4     5    1
     7     4    31    1
     8     4    32    1
     9     5     6    1
    10     5    14    1
    11     5     7    1
    12     7     8    1
    13     7    33    1
    14     7    34    1
    15     8     9    1
    16     8    35    1
    17     8    36    1
    18     9    10    1
    19     9    37    1
    20     9    38    1
    21    10    11    1
    22    10    39    1
    23    10    40    1
    24    11    12    1
    25    11    13    1
    26    11    14    1
    27    14    41    1
    28    14    42    1
    29    15    16    2
    30    15    17   am
    31    17    18    1
    32    17    43    1
    33    18    29   ar
    34    18    19   ar
    35    19    20   ar
    36    19    44    1
    37    20    21   ar
    38    20    45    1
    39    21    28   ar
    40    21    22    1
    41    22    23    2
    42    23    24    1
    43    23    27    1
    44    24    26    1
    45    24    25    1
    46    24    46    1
    47    25    26    1
    48    25    47    1
    49    25    48    1
    50    26    49    1
    51    26    50    1
    52    27    28    1
    53    28    29   ar
    54    29    51    1
@<TRIPOS>SUBSTRUCTURE
     1 ZINC000550952205        1 TEMP              0 ****  ****    0 ROOT


##########                                Name:    ZINC001356153960
##########                DOCK_Rotatable_Bonds:                   8
##########                         Heavy_Atoms:                  24
##########                    Molecular_Weight:             334.366
##########                DOCK_Rotatable_Bonds:                   8
##########                       Formal_Charge:           0.0100003
##########                     HBond_Acceptors:                   6
##########                        HBond_Donors:                   1
##########                         Heavy_Atoms:                  24
##########                          Grid_Score:          -31.854881
##########                     Grid_vdw_energy:          -29.915535
##########                      Grid_es_energy:           -1.939346
##########           Internal_energy_repulsive:           14.692710

@<TRIPOS>MOLECULE
ZINC001356153960
 44 46 1 0 0
SMALL
USER_CHARGES


@<TRIPOS>ATOM
      1 O1         -6.6066   -0.0945   49.7211 O.2     1  ZINC001356153960   -0.5200
      2 C2         -5.7751    0.4774   50.3949 C.2     1  ZINC001356153960    0.5100
      3 N3         -5.7775    0.3319   51.7349 N.am    1  ZINC001356153960   -0.7000
      4 C4         -6.7801   -0.5214   52.3772 C.3     1  ZINC001356153960    0.1300
      5 C5         -7.9594    0.3367   52.8397 C.3     1  ZINC001356153960   -0.0800
      6 H6         -8.4203    0.8377   51.9885 H       1  ZINC001356153960    0.0900
      7 C7         -8.9769   -0.5136   53.5643 C.2     1  ZINC001356153960   -0.1700
      8 C8         -9.3864    0.0720   54.6565 C.2     1  ZINC001356153960   -0.1600
      9 C9         -8.7104    1.4106   54.8424 C.3     1  ZINC001356153960   -0.1000
     10 C10        -7.4926    1.3740   53.8872 C.3     1  ZINC001356153960   -0.1200
     11 C11        -4.7522    1.3479   49.7397 C.2     1  ZINC001356153960    0.5100
     12 O12        -3.9223    0.8590   49.0016 O.2     1  ZINC001356153960   -0.5100
     13 N13        -4.7515    2.6761   49.9686 N.am    1  ZINC001356153960   -0.5500
     14 C14        -3.7488    3.5296   49.3264 C.3     1  ZINC001356153960    0.1300
     15 C15        -2.3870    3.2164   49.8904 C.ar    1  ZINC001356153960   -0.1600
     16 C16        -2.1056    3.4987   51.2135 C.ar    1  ZINC001356153960   -0.0300
     17 C17        -0.8587    3.2068   51.7337 C.ar    1  ZINC001356153960   -0.1700
     18 C18         0.1137    2.6415   50.9264 C.ar    1  ZINC001356153960    0.1400
     19 F19         1.3340    2.3610   51.4336 F       1  ZINC001356153960   -0.1300
     20 C20        -0.1651    2.3634   49.5990 C.ar    1  ZINC001356153960   -0.2000
     21 C21        -1.4158    2.6509   49.0808 C.ar    1  ZINC001356153960    0.1500
     22 F22        -1.6891    2.3804   47.7858 F       1  ZINC001356153960   -0.1200
     23 C23        -5.7534    3.2665   50.8596 C.3     1  ZINC001356153960    0.0700
     24 C24        -7.2146    3.2211   50.4080 C.3     1  ZINC001356153960   -0.1900
     25 C25        -6.4488    4.5464   50.3913 C.3     1  ZINC001356153960   -0.1800
     26 H26        -5.1154    0.7922   52.2738 H       1  ZINC001356153960    0.4100
     27 H27        -7.1315   -1.2683   51.6652 H       1  ZINC001356153960    0.0800
     28 H28        -6.3347   -1.0210   53.2376 H       1  ZINC001356153960    0.0800
     29 H29        -9.3198   -1.4793   53.2234 H       1  ZINC001356153960    0.1200
     30 H30       -10.1128   -0.3453   55.3380 H       1  ZINC001356153960    0.1300
     31 H31        -9.3858    2.2192   54.5631 H       1  ZINC001356153960    0.0800
     32 H32        -8.3827    1.5303   55.8751 H       1  ZINC001356153960    0.0700
     33 H33        -6.5983    1.0300   54.4069 H       1  ZINC001356153960    0.0800
     34 H34        -7.3252    2.3475   53.4263 H       1  ZINC001356153960    0.0800
     35 H35        -3.7486    3.3447   48.2523 H       1  ZINC001356153960    0.0900
     36 H36        -3.9882    4.5762   49.5149 H       1  ZINC001356153960    0.1400
     37 H37        -2.8620    3.9441   51.8428 H       1  ZINC001356153960    0.1600
     38 H38        -0.6412    3.4242   52.7690 H       1  ZINC001356153960    0.1400
     39 H39         0.5928    1.9227   48.9685 H       1  ZINC001356153960    0.1500
     40 H40        -5.5529    3.1640   51.9261 H       1  ZINC001356153960    0.1400
     41 H41        -7.4304    2.7520   49.4481 H       1  ZINC001356153960    0.1400
     42 H42        -7.9752    3.0892   51.1775 H       1  ZINC001356153960    0.0900
     43 H43        -6.7059    5.2858   51.1498 H       1  ZINC001356153960    0.1000
     44 H44        -6.1606    4.9492   49.4202 H       1  ZINC001356153960    0.0900
@<TRIPOS>BOND
     1     1     2    2
     2     2     3   am
     3     2    11    1
     4     3     4    1
     5     3    26    1
     6     4     5    1
     7     4    27    1
     8     4    28    1
     9     5     6    1
    10     5    10    1
    11     5     7    1
    12     7     8    2
    13     7    29    1
    14     8     9    1
    15     8    30    1
    16     9    10    1
    17     9    31    1
    18     9    32    1
    19    10    33    1
    20    10    34    1
    21    11    12    2
    22    11    13   am
    23    13    14    1
    24    13    23    1
    25    14    15    1
    26    14    35    1
    27    14    36    1
    28    15    21   ar
    29    15    16   ar
    30    16    17   ar
    31    16    37    1
    32    17    18   ar
    33    17    38    1
    34    18    19    1
    35    18    20   ar
    36    20    21   ar
    37    20    39    1
    38    21    22    1
    39    23    25    1
    40    23    24    1
    41    23    40    1
    42    24    25    1
    43    24    41    1
    44    24    42    1
    45    25    43    1
    46    25    44    1
@<TRIPOS>SUBSTRUCTURE
     1 ZINC001356153960        1 TEMP              0 ****  ****    0 ROOT


##########                                Name:    ZINC000508571532
##########                DOCK_Rotatable_Bonds:                   9
##########                         Heavy_Atoms:                  30
##########                    Molecular_Weight:             422.407
##########                DOCK_Rotatable_Bonds:                   9
##########                       Formal_Charge:           0.0100001
##########                     HBond_Acceptors:                  10
##########                        HBond_Donors:                   0
##########                         Heavy_Atoms:                  30
##########                          Grid_Score:          -31.849009
##########                     Grid_vdw_energy:          -32.224365
##########                      Grid_es_energy:            0.375356
##########           Internal_energy_repulsive:           20.297344

@<TRIPOS>MOLECULE
ZINC000508571532
 51 53 1 0 0
SMALL
USER_CHARGES


@<TRIPOS>ATOM
      1 C1        -13.0363   -2.3254   60.0048 C.3     1  ZINC000508571532    0.0300
      2 O2        -13.1645   -1.2086   59.1226 O.3     1  ZINC000508571532   -0.3200
      3 C3        -12.2927   -1.1412   58.0813 C.ar    1  ZINC000508571532    0.0900
      4 C4        -12.3848   -0.1033   57.1660 C.ar    1  ZINC000508571532   -0.1700
      5 C5        -11.4992   -0.0346   56.1080 C.ar    1  ZINC000508571532   -0.1100
      6 C6        -10.5176   -1.0035   55.9615 C.ar    1  ZINC000508571532    0.0900
      7 O7         -9.6461   -0.9362   54.9198 O.3     1  ZINC000508571532   -0.3100
      8 C8         -9.8555    0.1063   53.9651 C.3     1  ZINC000508571532    0.1500
      9 C9         -8.7923    0.0326   52.8996 C.2     1  ZINC000508571532    0.1700
     10 N10        -8.8465   -0.6668   51.8016 N.2     1  ZINC000508571532   -0.2500
     11 N11        -7.7703   -0.4997   51.1191 N.2     1  ZINC000508571532   -0.3000
     12 C12        -6.9653    0.3220   51.7501 C.2     1  ZINC000508571532    0.3500
     13 N13        -5.7147    0.7399   51.3236 N.3     1  ZINC000508571532   -0.4600
     14 C14        -5.1226   -0.2331   50.3958 C.3     1  ZINC000508571532    0.0300
     15 C15        -5.7855    2.0740   50.7127 C.3     1  ZINC000508571532    0.1100
     16 C16        -4.3912    2.5750   50.4371 C.ar    1  ZINC000508571532   -0.0900
     17 C17        -3.8333    2.4123   49.1841 C.ar    1  ZINC000508571532   -0.0600
     18 C18        -2.5537    2.8713   48.9307 C.ar    1  ZINC000508571532   -0.1300
     19 C19        -1.8299    3.4945   49.9300 C.ar    1  ZINC000508571532   -0.0700
     20 C20        -2.3836    3.6602   51.1851 C.ar    1  ZINC000508571532   -0.1900
     21 C21        -3.6689    3.2053   51.4403 C.ar    1  ZINC000508571532    0.1100
     22 O22        -4.2157    3.3670   52.6738 O.3     1  ZINC000508571532   -0.3100
     23 C23        -4.4757    4.7067   53.0976 C.3     1  ZINC000508571532    0.6000
     24 F24        -5.5050    4.7048   54.0452 F       1  ZINC000508571532   -0.1600
     25 F25        -3.3185    5.2486   53.6672 F       1  ZINC000508571532   -0.1300
     26 F26        -4.8583    5.4785   51.9953 F       1  ZINC000508571532   -0.1600
     27 N27        -7.5944    0.6921   52.9031 N.pl3   1  ZINC000508571532   -0.4500
     28 C28        -7.0875    1.5997   53.9352 C.3     1  ZINC000508571532    0.0800
     29 C29       -10.4246   -2.0406   56.8776 C.ar    1  ZINC000508571532   -0.1700
     30 C30       -11.3078   -2.1071   57.9376 C.ar    1  ZINC000508571532   -0.1100
     31 H31       -13.7901   -2.2573   60.7892 H       1  ZINC000508571532    0.1000
     32 H32       -13.1778   -3.2495   59.4442 H       1  ZINC000508571532    0.0600
     33 H33       -12.0432   -2.3214   60.4541 H       1  ZINC000508571532    0.0600
     34 H34       -13.1492    0.6512   57.2801 H       1  ZINC000508571532    0.1400
     35 H35       -11.5714    0.7732   55.3949 H       1  ZINC000508571532    0.1300
     36 H36       -10.8375   -0.0122   53.5073 H       1  ZINC000508571532    0.0800
     37 H37        -9.8021    1.0732   54.4654 H       1  ZINC000508571532    0.1000
     38 H38        -5.6890   -0.2384   49.4646 H       1  ZINC000508571532    0.0600
     39 H39        -4.0885    0.0433   50.1906 H       1  ZINC000508571532    0.0800
     40 H40        -5.1511   -1.2263   50.8440 H       1  ZINC000508571532    0.0700
     41 H41        -6.3423    2.0163   49.7775 H       1  ZINC000508571532    0.0700
     42 H42        -6.2897    2.7593   51.3941 H       1  ZINC000508571532    0.0900
     43 H43        -4.3969    1.9257   48.4017 H       1  ZINC000508571532    0.1400
     44 H44        -2.1190    2.7424   47.9505 H       1  ZINC000508571532    0.1300
     45 H45        -0.8306    3.8519   49.7298 H       1  ZINC000508571532    0.1400
     46 H46        -1.8175    4.1468   51.9655 H       1  ZINC000508571532    0.1400
     47 H47        -7.4671    2.6051   53.7532 H       1  ZINC000508571532    0.0900
     48 H48        -7.4203    1.2576   54.9152 H       1  ZINC000508571532    0.0900
     49 H49        -5.9980    1.6118   53.9053 H       1  ZINC000508571532    0.1000
     50 H50        -9.6600   -2.7949   56.7636 H       1  ZINC000508571532    0.1400
     51 H51       -11.2354   -2.9148   58.6510 H       1  ZINC000508571532    0.1400
@<TRIPOS>BOND
     1     1     2    1
     2     1    31    1
     3     1    32    1
     4     1    33    1
     5     2     3    1
     6     3    30   ar
     7     3     4   ar
     8     4     5   ar
     9     4    34    1
    10     5     6   ar
    11     5    35    1
    12     6     7    1
    13     6    29   ar
    14     7     8    1
    15     8     9    1
    16     8    36    1
    17     8    37    1
    18     9    27    1
    19     9    10    2
    20    10    11    1
    21    11    12    2
    22    12    13    1
    23    12    27    1
    24    13    14    1
    25    13    15    1
    26    14    38    1
    27    14    39    1
    28    14    40    1
    29    15    16    1
    30    15    41    1
    31    15    42    1
    32    16    21   ar
    33    16    17   ar
    34    17    18   ar
    35    17    43    1
    36    18    19   ar
    37    18    44    1
    38    19    20   ar
    39    19    45    1
    40    20    21   ar
    41    20    46    1
    42    21    22    1
    43    22    23    1
    44    23    24    1
    45    23    25    1
    46    23    26    1
    47    27    28    1
    48    28    47    1
    49    28    48    1
    50    28    49    1
    51    29    30   ar
    52    29    50    1
    53    30    51    1
@<TRIPOS>SUBSTRUCTURE
     1 ZINC000508571532        1 TEMP              0 ****  ****    0 ROOT


##########                                Name:    ZINC000265724350
##########                DOCK_Rotatable_Bonds:                   8
##########                         Heavy_Atoms:                  23
##########                    Molecular_Weight:              345.42
##########                DOCK_Rotatable_Bonds:                   8
##########                       Formal_Charge:          -0.0300002
##########                     HBond_Acceptors:                   9
##########                        HBond_Donors:                   2
##########                         Heavy_Atoms:                  23
##########                          Grid_Score:          -31.846037
##########                     Grid_vdw_energy:          -29.712145
##########                      Grid_es_energy:           -2.133892
##########           Internal_energy_repulsive:            4.554616

@<TRIPOS>MOLECULE
ZINC000265724350
 46 47 1 0 0
SMALL
USER_CHARGES


@<TRIPOS>ATOM
      1 C1         -8.1536   -0.5746   59.3373 C.3     1  ZINC000265724350    0.0800
      2 N2         -7.9293    0.7643   59.8882 N.am    1  ZINC000265724350   -1.1100
      3 S3         -8.5037    2.0957   59.0882 S.o2    1  ZINC000265724350    2.7200
      4 O4         -9.8898    1.8679   58.8738 O.2     1  ZINC000265724350   -0.9300
      5 O5         -8.0005    3.2289   59.7821 O.2     1  ZINC000265724350   -0.9300
      6 C6         -7.7500    2.1125   57.4956 C.2     1  ZINC000265724350   -0.5600
      7 C7         -6.5976    2.7421   57.1770 C.2     1  ZINC000265724350   -0.0900
      8 C8         -6.3587    2.5020   55.8147 C.2     1  ZINC000265724350   -0.1400
      9 C9         -7.3904    1.7284   55.3657 C.2     1  ZINC000265724350   -0.0200
     10 C10        -7.5615    1.2301   53.9970 C.2     1  ZINC000265724350    0.6000
     11 O11        -8.5542    0.5908   53.7019 O.2     1  ZINC000265724350   -0.5000
     12 N12        -6.6196    1.4802   53.0660 N.am    1  ZINC000265724350   -0.7100
     13 C13        -6.7914    0.9838   51.6984 C.3     1  ZINC000265724350    0.1200
     14 C14        -5.4319    0.9375   50.9981 C.3     1  ZINC000265724350   -0.1100
     15 H15        -4.6901    0.5099   51.6726 H       1  ZINC000265724350    0.0800
     16 C16        -5.5356    0.0731   49.7400 C.3     1  ZINC000265724350   -0.1400
     17 C17        -5.0100    2.3558   50.6091 C.3     1  ZINC000265724350    0.0600
     18 N18        -3.5492    2.4761   50.7066 N.3     1  ZINC000265724350   -0.5300
     19 C19        -3.1587    3.1657   51.9448 C.3     1  ZINC000265724350    0.0100
     20 C20        -1.6313    3.2162   52.0345 C.3     1  ZINC000265724350    0.0600
     21 O21        -1.1113    3.8611   50.8688 O.3     1  ZINC000265724350   -0.3900
     22 C22        -1.4719    3.2156   49.6446 C.3     1  ZINC000265724350    0.0600
     23 C23        -2.9977    3.1650   49.5306 C.3     1  ZINC000265724350    0.0200
     24 O24        -8.2218    1.4984   56.4029 O.3     1  ZINC000265724350   -0.1100
     25 H25        -7.7069   -1.3184   59.9970 H       1  ZINC000265724350    0.0900
     26 H26        -9.2248   -0.7587   59.2549 H       1  ZINC000265724350    0.0600
     27 H27        -7.6962   -0.6427   58.3503 H       1  ZINC000265724350    0.0700
     28 H28        -7.4443    0.8710   60.7214 H       1  ZINC000265724350    0.4200
     29 H29        -5.9771    3.3212   57.8447 H       1  ZINC000265724350    0.1800
     30 H30        -5.5212    2.8600   55.2343 H       1  ZINC000265724350    0.1700
     31 H31        -5.8279    1.9887   53.3016 H       1  ZINC000265724350    0.4100
     32 H32        -7.2200   -0.0179   51.7265 H       1  ZINC000265724350    0.0800
     33 H33        -7.4593    1.6495   51.1516 H       1  ZINC000265724350    0.0700
     34 H34        -5.8361   -0.9374   50.0171 H       1  ZINC000265724350    0.0500
     35 H35        -6.2773    0.5007   49.0654 H       1  ZINC000265724350    0.0600
     36 H36        -4.5670    0.0401   49.2410 H       1  ZINC000265724350    0.0700
     37 H37        -5.3240    2.5604   49.5856 H       1  ZINC000265724350    0.0800
     38 H38        -5.4794    3.0722   51.2834 H       1  ZINC000265724350    0.0400
     39 H39        -3.5567    4.1804   51.9374 H       1  ZINC000265724350    0.0400
     40 H40        -3.5560    2.6245   52.8036 H       1  ZINC000265724350    0.0900
     41 H41        -1.3372    3.7764   52.9222 H       1  ZINC000265724350    0.1000
     42 H42        -1.2365    2.2020   52.0961 H       1  ZINC000265724350    0.0600
     43 H43        -1.0625    3.7753   48.8037 H       1  ZINC000265724350    0.1000
     44 H44        -1.0724    2.2014   49.6366 H       1  ZINC000265724350    0.0600
     45 H45        -3.2775    2.6234   48.6271 H       1  ZINC000265724350    0.0900
     46 H46        -3.3931    4.1798   49.4847 H       1  ZINC000265724350    0.0400
@<TRIPOS>BOND
     1     1     2    1
     2     1    25    1
     3     1    26    1
     4     1    27    1
     5     2     3   am
     6     2    28    1
     7     3     4    2
     8     3     5    2
     9     3     6    1
    10     6    24    1
    11     6     7    2
    12     7     8    1
    13     7    29    1
    14     8     9    2
    15     8    30    1
    16     9    10    1
    17     9    24    1
    18    10    11    2
    19    10    12   am
    20    12    13    1
    21    12    31    1
    22    13    14    1
    23    13    32    1
    24    13    33    1
    25    14    15    1
    26    14    16    1
    27    14    17    1
    28    16    34    1
    29    16    35    1
    30    16    36    1
    31    17    18    1
    32    17    37    1
    33    17    38    1
    34    18    23    1
    35    18    19    1
    36    19    20    1
    37    19    39    1
    38    19    40    1
    39    20    21    1
    40    20    41    1
    41    20    42    1
    42    21    22    1
    43    22    23    1
    44    22    43    1
    45    22    44    1
    46    23    45    1
    47    23    46    1
@<TRIPOS>SUBSTRUCTURE
     1 ZINC000265724350        1 TEMP              0 ****  ****    0 ROOT


##########                                Name:    ZINC000892389374
##########                DOCK_Rotatable_Bonds:                   6
##########                         Heavy_Atoms:                  25
##########                    Molecular_Weight:             371.383
##########                DOCK_Rotatable_Bonds:                   6
##########                       Formal_Charge:          -0.0199998
##########                     HBond_Acceptors:                   9
##########                        HBond_Donors:                   1
##########                         Heavy_Atoms:                  25
##########                          Grid_Score:          -31.799398
##########                     Grid_vdw_energy:          -31.438295
##########                      Grid_es_energy:           -0.361103
##########           Internal_energy_repulsive:            9.145838

@<TRIPOS>MOLECULE
ZINC000892389374
 41 43 1 0 0
SMALL
USER_CHARGES


@<TRIPOS>ATOM
      1 C1         -7.4944    3.7673   50.0815 C.3     1  ZINC000892389374   -0.1000
      2 C2         -6.0144    3.4867   50.0355 C.ar    1  ZINC000892389374   -0.1800
      3 C3         -5.1110    4.5120   50.2370 C.ar    1  ZINC000892389374   -0.0400
      4 C4         -3.7533    4.2587   50.1961 C.ar    1  ZINC000892389374   -0.2100
      5 C5         -3.2924    2.9714   49.9515 C.ar    1  ZINC000892389374    0.2200
      6 N6         -1.9170    2.7159   49.9102 N.am    1  ZINC000892389374   -0.5700
      7 C7         -0.9856    2.8619   51.0392 C.3     1  ZINC000892389374    0.0600
      8 C8          0.3772    2.4563   50.4455 C.3     1  ZINC000892389374    0.0400
      9 O9          0.0741    2.1277   49.0588 O.3     1  ZINC000892389374   -0.3200
     10 C10        -1.2349    2.2928   48.8371 C.2     1  ZINC000892389374    0.6400
     11 O11        -1.7561    2.0863   47.7591 O.2     1  ZINC000892389374   -0.5000
     12 C12        -4.1968    1.9390   49.7486 C.ar    1  ZINC000892389374   -0.2300
     13 C13        -5.5598    2.1952   49.7960 C.ar    1  ZINC000892389374    0.2400
     14 N14        -6.4736    1.1589   49.5923 N.pl3   1  ZINC000892389374   -0.7400
     15 C15        -6.4587   -0.0140   50.4700 C.3     1  ZINC000892389374    0.2000
     16 C16        -7.0654    0.3471   51.8013 C.2     1  ZINC000892389374   -0.2400
     17 C17        -6.4448    0.9774   52.8032 C.2     1  ZINC000892389374    0.0600
     18 N18        -7.1931    1.1790   53.8689 N.2     1  ZINC000892389374   -0.4500
     19 C19        -8.4105    0.7538   53.8220 C.2     1  ZINC000892389374    0.0200
     20 C20        -9.4154    0.8905   54.9367 C.3     1  ZINC000892389374   -0.0900
     21 C21       -10.3688   -0.3059   54.9133 C.3     1  ZINC000892389374    0.4600
     22 F22        -9.6455   -1.4734   54.6467 F       1  ZINC000892389374   -0.1800
     23 F23       -11.0012   -0.4226   56.1556 F       1  ZINC000892389374   -0.1800
     24 F24       -11.3313   -0.1157   53.9160 F       1  ZINC000892389374   -0.1700
     25 S25        -8.7204    0.0195   52.3094 S.3     1  ZINC000892389374    0.1900
     26 H26        -7.8556    3.6461   51.1027 H       1  ZINC000892389374    0.0700
     27 H27        -7.6811    4.7884   49.7489 H       1  ZINC000892389374    0.0700
     28 H28        -8.0169    3.0705   49.4262 H       1  ZINC000892389374    0.0600
     29 H29        -5.4667    5.5140   50.4267 H       1  ZINC000892389374    0.1300
     30 H30        -3.0496    5.0626   50.3540 H       1  ZINC000892389374    0.1200
     31 H31        -0.9607    3.8957   51.3837 H       1  ZINC000892389374    0.1000
     32 H32        -1.2631    2.1925   51.8534 H       1  ZINC000892389374    0.1000
     33 H33         1.0792    3.2886   50.4964 H       1  ZINC000892389374    0.1100
     34 H34         0.7769    1.5858   50.9658 H       1  ZINC000892389374    0.1100
     35 H35        -3.8408    0.9373   49.5579 H       1  ZINC000892389374    0.1600
     36 H36        -7.1183    1.2157   48.8697 H       1  ZINC000892389374    0.4000
     37 H37        -7.0369   -0.8171   50.0130 H       1  ZINC000892389374    0.0900
     38 H38        -5.4305   -0.3447   50.6170 H       1  ZINC000892389374    0.0800
     39 H39        -5.4144    1.2955   52.7440 H       1  ZINC000892389374    0.1800
     40 H40        -8.8945    0.9214   55.8937 H       1  ZINC000892389374    0.1300
     41 H41        -9.9839    1.8108   54.8027 H       1  ZINC000892389374    0.1400
@<TRIPOS>BOND
     1     1     2    1
     2     1    26    1
     3     1    27    1
     4     1    28    1
     5     2    13   ar
     6     2     3   ar
     7     3     4   ar
     8     3    29    1
     9     4     5   ar
    10     4    30    1
    11     5     6    1
    12     5    12   ar
    13     6    10   am
    14     6     7    1
    15     7     8    1
    16     7    31    1
    17     7    32    1
    18     8     9    1
    19     8    33    1
    20     8    34    1
    21     9    10    1
    22    10    11    2
    23    12    13   ar
    24    12    35    1
    25    13    14    1
    26    14    15    1
    27    14    36    1
    28    15    16    1
    29    15    37    1
    30    15    38    1
    31    16    25    1
    32    16    17    2
    33    17    18    1
    34    17    39    1
    35    18    19    2
    36    19    20    1
    37    19    25    1
    38    20    21    1
    39    20    40    1
    40    20    41    1
    41    21    22    1
    42    21    23    1
    43    21    24    1
@<TRIPOS>SUBSTRUCTURE
     1 ZINC000892389374        1 TEMP              0 ****  ****    0 ROOT


##########                                Name:    ZINC001408567397
##########                DOCK_Rotatable_Bonds:                   9
##########                         Heavy_Atoms:                  24
##########                    Molecular_Weight:             336.434
##########                DOCK_Rotatable_Bonds:                   9
##########                       Formal_Charge:          -0.0199996
##########                     HBond_Acceptors:                   7
##########                        HBond_Donors:                   2
##########                         Heavy_Atoms:                  24
##########                          Grid_Score:          -31.794594
##########                     Grid_vdw_energy:          -29.255064
##########                      Grid_es_energy:           -2.539530
##########           Internal_energy_repulsive:           19.440742

@<TRIPOS>MOLECULE
ZINC001408567397
 52 53 1 0 0
SMALL
USER_CHARGES


@<TRIPOS>ATOM
      1 C1         -0.7247    2.1031   47.4589 C.3     1  ZINC001408567397   -0.0800
      2 C2         -0.8030    2.3738   48.9394 C.2     1  ZINC001408567397    0.0900
      3 N3          0.1930    2.3071   49.7852 N.2     1  ZINC001408567397   -0.2900
      4 N4         -0.2924    2.6293   51.0591 N.pl3   1  ZINC001408567397   -0.4700
      5 C5         -1.6116    2.8907   50.9472 C.2     1  ZINC001408567397    0.1100
      6 C6         -2.5384    3.2808   52.0695 C.3     1  ZINC001408567397   -0.1000
      7 C7         -1.9518    2.7453   49.6456 C.2     1  ZINC001408567397   -0.2200
      8 C8         -3.3271    2.9405   49.0615 C.3     1  ZINC001408567397   -0.0600
      9 C9         -4.1416    1.6890   49.2651 C.2     1  ZINC001408567397    0.5100
     10 O10        -3.7130    0.6187   48.8888 O.2     1  ZINC001408567397   -0.5300
     11 N11        -5.3464    1.7592   49.8653 N.am    1  ZINC001408567397   -0.7300
     12 C12        -6.1374    0.5423   50.0647 C.3     1  ZINC001408567397    0.1100
     13 C13        -6.4762    0.3918   51.5490 C.3     1  ZINC001408567397    0.1000
     14 N14        -7.8044    0.9539   51.8061 N.am    1  ZINC001408567397   -0.6200
     15 C15        -8.0130    2.4023   51.7361 C.3     1  ZINC001408567397    0.0700
     16 C16        -8.8345    0.1385   52.1070 C.2     1  ZINC001408567397    0.5100
     17 O17        -8.6615   -1.0603   52.1665 O.2     1  ZINC001408567397   -0.5300
     18 C18       -10.2012    0.7166   52.3697 C.3     1  ZINC001408567397   -0.1300
     19 C19       -10.3242    1.0825   53.8502 C.3     1  ZINC001408567397   -0.1100
     20 H20        -9.5653    1.8216   54.1070 H       1  ZINC001408567397    0.0900
     21 C21       -11.7158    1.6628   54.1203 C.3     1  ZINC001408567397   -0.1200
     22 C22       -11.8543    1.9526   55.6180 C.3     1  ZINC001408567397   -0.1600
     23 C23       -11.5993    0.6644   56.4049 C.3     1  ZINC001408567397    0.0600
     24 O24       -10.3008    0.1611   56.0843 O.3     1  ZINC001408567397   -0.3800
     25 C25       -10.1267   -0.1718   54.7054 C.3     1  ZINC001408567397    0.0600
     26 H26        -0.4897    3.0282   46.9325 H       1  ZINC001408567397    0.0800
     27 H27         0.0551    1.3666   47.2649 H       1  ZINC001408567397    0.0700
     28 H28        -1.6827    1.7190   47.1086 H       1  ZINC001408567397    0.0800
     29 H29         0.2279    2.6591   51.8774 H       1  ZINC001408567397    0.4400
     30 H30        -2.5506    4.3660   52.1702 H       1  ZINC001408567397    0.0800
     31 H31        -3.5450    2.9249   51.8498 H       1  ZINC001408567397    0.0900
     32 H32        -2.1900    2.8334   53.0005 H       1  ZINC001408567397    0.0700
     33 H33        -3.8173    3.7777   49.5583 H       1  ZINC001408567397    0.1000
     34 H34        -3.2428    3.1496   47.9951 H       1  ZINC001408567397    0.1000
     35 H35        -5.6897    2.6153   50.1651 H       1  ZINC001408567397    0.4000
     36 H36        -7.0590    0.6091   49.4866 H       1  ZINC001408567397    0.0700
     37 H37        -5.5629   -0.3229   49.7336 H       1  ZINC001408567397    0.0700
     38 H38        -6.4704   -0.6644   51.8178 H       1  ZINC001408567397    0.0800
     39 H39        -5.7352    0.9229   52.1465 H       1  ZINC001408567397    0.0900
     40 H40        -8.2923    2.6805   50.7199 H       1  ZINC001408567397    0.0600
     41 H41        -8.8095    2.6884   52.4230 H       1  ZINC001408567397    0.0800
     42 H42        -7.0923    2.9158   52.0133 H       1  ZINC001408567397    0.0800
     43 H43       -10.3408    1.6104   51.7618 H       1  ZINC001408567397    0.1000
     44 H44       -10.9627   -0.0199   52.1131 H       1  ZINC001408567397    0.1000
     45 H45       -11.8409    2.5875   53.5569 H       1  ZINC001408567397    0.0700
     46 H46       -12.4761    0.9434   53.8163 H       1  ZINC001408567397    0.0600
     47 H47       -11.1262    2.7089   55.9115 H       1  ZINC001408567397    0.0700
     48 H48       -12.8610    2.3142   55.8275 H       1  ZINC001408567397    0.0700
     49 H49       -11.6544    0.8740   57.4730 H       1  ZINC001408567397    0.0900
     50 H50       -12.3523   -0.0780   56.1405 H       1  ZINC001408567397    0.0500
     51 H51       -10.8601   -0.9252   54.4179 H       1  ZINC001408567397    0.0400
     52 H52        -9.1219   -0.5647   54.5504 H       1  ZINC001408567397    0.1100
@<TRIPOS>BOND
     1     1     2    1
     2     1    26    1
     3     1    27    1
     4     1    28    1
     5     2     7    1
     6     2     3    2
     7     3     4    1
     8     4     5    1
     9     4    29    1
    10     5     6    1
    11     5     7    2
    12     6    30    1
    13     6    31    1
    14     6    32    1
    15     7     8    1
    16     8     9    1
    17     8    33    1
    18     8    34    1
    19     9    10    2
    20     9    11   am
    21    11    12    1
    22    11    35    1
    23    12    13    1
    24    12    36    1
    25    12    37    1
    26    13    14    1
    27    13    38    1
    28    13    39    1
    29    14    15    1
    30    14    16   am
    31    15    40    1
    32    15    41    1
    33    15    42    1
    34    16    17    2
    35    16    18    1
    36    18    19    1
    37    18    43    1
    38    18    44    1
    39    19    20    1
    40    19    25    1
    41    19    21    1
    42    21    22    1
    43    21    45    1
    44    21    46    1
    45    22    23    1
    46    22    47    1
    47    22    48    1
    48    23    24    1
    49    23    49    1
    50    23    50    1
    51    24    25    1
    52    25    51    1
    53    25    52    1
@<TRIPOS>SUBSTRUCTURE
     1 ZINC001408567397        1 TEMP              0 ****  ****    0 ROOT


##########                                Name:    ZINC000537799672
##########                DOCK_Rotatable_Bonds:                   9
##########                         Heavy_Atoms:                  29
##########                    Molecular_Weight:             401.478
##########                DOCK_Rotatable_Bonds:                   9
##########                       Formal_Charge:        -4.47035e-07
##########                     HBond_Acceptors:                   6
##########                        HBond_Donors:                   1
##########                         Heavy_Atoms:                  29
##########                          Grid_Score:          -31.792030
##########                     Grid_vdw_energy:          -31.429840
##########                      Grid_es_energy:           -0.362189
##########           Internal_energy_repulsive:           18.117308

@<TRIPOS>MOLECULE
ZINC000537799672
 57 59 1 0 0
SMALL
USER_CHARGES


@<TRIPOS>ATOM
      1 C1         -6.3635    4.0699   52.7449 C.3     1  ZINC000537799672    0.0300
      2 O2         -6.4061    3.3491   51.5117 O.3     1  ZINC000537799672   -0.3800
      3 C3         -6.4107    1.9288   51.6684 C.3     1  ZINC000537799672    0.1200
      4 H4         -5.6492    1.6407   52.3930 H       1  ZINC000537799672    0.0900
      5 C5         -7.7642    1.4817   52.1575 C.ar    1  ZINC000537799672   -0.1300
      6 C6         -8.9077    2.0982   51.6848 C.ar    1  ZINC000537799672   -0.0600
      7 C7        -10.1495    1.6891   52.1326 C.ar    1  ZINC000537799672   -0.1500
      8 C8        -10.2481    0.6611   53.0548 C.ar    1  ZINC000537799672    0.1000
      9 F9        -11.4615    0.2601   53.4930 F       1  ZINC000537799672   -0.1400
     10 C10        -9.1021    0.0441   53.5273 C.ar    1  ZINC000537799672   -0.1500
     11 C11        -7.8617    0.4516   53.0744 C.ar    1  ZINC000537799672   -0.0800
     12 C12        -6.1105    1.2661   50.3224 C.3     1  ZINC000537799672    0.1600
     13 H13        -6.6517    1.7866   49.5323 H       1  ZINC000537799672    0.1000
     14 C14        -6.5532   -0.1979   50.3648 C.3     1  ZINC000537799672   -0.1600
     15 N15        -4.6717    1.3335   50.0550 N.am    1  ZINC000537799672   -0.7100
     16 C16        -4.1620    2.3752   49.3684 C.2     1  ZINC000537799672    0.5600
     17 O17        -4.8959    3.2595   48.9722 O.2     1  ZINC000537799672   -0.5400
     18 C18        -2.7102    2.4425   49.0970 C.ar    1  ZINC000537799672   -0.1400
     19 C19        -2.2094    2.0393   47.8582 C.ar    1  ZINC000537799672   -0.0800
     20 C20        -0.8535    2.1050   47.6113 C.ar    1  ZINC000537799672   -0.1300
     21 C21         0.0090    2.5689   48.5883 C.ar    1  ZINC000537799672   -0.0900
     22 C22        -0.4810    2.9698   49.8188 C.ar    1  ZINC000537799672   -0.1100
     23 C23        -1.8351    2.9149   50.0765 C.ar    1  ZINC000537799672   -0.0300
     24 C24        -2.3670    3.3523   51.4170 C.3     1  ZINC000537799672    0.1100
     25 O25        -1.3351    4.0234   52.1429 O.3     1  ZINC000537799672   -0.3800
     26 C26        -1.3681    3.7875   53.5520 C.3     1  ZINC000537799672    0.0900
     27 C27         0.0087    4.0850   54.1538 C.3     1  ZINC000537799672   -0.1800
     28 C28        -0.0573    3.9057   55.6726 C.3     1  ZINC000537799672    0.0600
     29 O29        -1.0633    4.7671   56.2095 O.3     1  ZINC000537799672   -0.3800
     30 C30        -2.3794    4.5040   55.7184 C.3     1  ZINC000537799672    0.0600
     31 C31        -2.4066    4.7073   54.2013 C.3     1  ZINC000537799672   -0.1500
     32 H32        -5.4987    3.7471   53.3246 H       1  ZINC000537799672    0.0500
     33 H33        -6.2854    5.1374   52.5393 H       1  ZINC000537799672    0.0900
     34 H34        -7.2740    3.8746   53.3115 H       1  ZINC000537799672    0.0400
     35 H35        -8.8306    2.9001   50.9654 H       1  ZINC000537799672    0.1300
     36 H36       -11.0426    2.1714   51.7636 H       1  ZINC000537799672    0.1400
     37 H37        -9.1779   -0.7577   54.2469 H       1  ZINC000537799672    0.1400
     38 H38        -6.9677   -0.0297   53.4425 H       1  ZINC000537799672    0.1300
     39 H39        -7.6021   -0.2519   50.6564 H       1  ZINC000537799672    0.0700
     40 H40        -6.4268   -0.6444   49.3786 H       1  ZINC000537799672    0.0600
     41 H41        -5.9462   -0.7401   51.0897 H       1  ZINC000537799672    0.0700
     42 H42        -4.0858    0.6285   50.3722 H       1  ZINC000537799672    0.4000
     43 H43        -2.8817    1.6764   47.0949 H       1  ZINC000537799672    0.1300
     44 H44        -0.4647    1.7934   46.6530 H       1  ZINC000537799672    0.1300
     45 H45         1.0695    2.6180   48.3900 H       1  ZINC000537799672    0.1300
     46 H46         0.1976    3.3305   50.5775 H       1  ZINC000537799672    0.1400
     47 H47        -3.2080    4.0301   51.2706 H       1  ZINC000537799672    0.0800
     48 H48        -2.6978    2.4790   51.9791 H       1  ZINC000537799672    0.0800
     49 H49        -1.6333    2.7473   53.7413 H       1  ZINC000537799672    0.0600
     50 H50         0.7446    3.3971   53.7374 H       1  ZINC000537799672    0.0800
     51 H51         0.2943    5.1106   53.9201 H       1  ZINC000537799672    0.0800
     52 H52        -0.3034    2.8698   55.9061 H       1  ZINC000537799672    0.0500
     53 H53         0.9085    4.1576   56.1107 H       1  ZINC000537799672    0.1000
     54 H54        -2.6558    3.4759   55.9523 H       1  ZINC000537799672    0.0500
     55 H55        -3.0864    5.1869   56.1895 H       1  ZINC000537799672    0.1000
     56 H56        -2.1697    5.7456   53.9687 H       1  ZINC000537799672    0.0800
     57 H57        -3.3981    4.4645   53.8190 H       1  ZINC000537799672    0.0800
@<TRIPOS>BOND
     1     1     2    1
     2     1    32    1
     3     1    33    1
     4     1    34    1
     5     2     3    1
     6     3     4    1
     7     3     5    1
     8     3    12    1
     9     5    11   ar
    10     5     6   ar
    11     6     7   ar
    12     6    35    1
    13     7     8   ar
    14     7    36    1
    15     8     9    1
    16     8    10   ar
    17    10    11   ar
    18    10    37    1
    19    11    38    1
    20    12    13    1
    21    12    14    1
    22    12    15    1
    23    14    39    1
    24    14    40    1
    25    14    41    1
    26    15    16   am
    27    15    42    1
    28    16    17    2
    29    16    18    1
    30    18    23   ar
    31    18    19   ar
    32    19    20   ar
    33    19    43    1
    34    20    21   ar
    35    20    44    1
    36    21    22   ar
    37    21    45    1
    38    22    23   ar
    39    22    46    1
    40    23    24    1
    41    24    25    1
    42    24    47    1
    43    24    48    1
    44    25    26    1
    45    26    31    1
    46    26    27    1
    47    26    49    1
    48    27    28    1
    49    27    50    1
    50    27    51    1
    51    28    29    1
    52    28    52    1
    53    28    53    1
    54    29    30    1
    55    30    31    1
    56    30    54    1
    57    30    55    1
    58    31    56    1
    59    31    57    1
@<TRIPOS>SUBSTRUCTURE
     1 ZINC000537799672        1 TEMP              0 ****  ****    0 ROOT


##########                                Name:    ZINC000989658617
##########                DOCK_Rotatable_Bonds:                   6
##########                         Heavy_Atoms:                  24
##########                    Molecular_Weight:             334.418
##########                DOCK_Rotatable_Bonds:                   6
##########                       Formal_Charge:          -0.0100001
##########                     HBond_Acceptors:                   7
##########                        HBond_Donors:                   2
##########                         Heavy_Atoms:                  24
##########                          Grid_Score:          -31.786901
##########                     Grid_vdw_energy:          -30.348242
##########                      Grid_es_energy:           -1.438660
##########           Internal_energy_repulsive:           13.511663

@<TRIPOS>MOLECULE
ZINC000989658617
 50 52 1 0 0
SMALL
USER_CHARGES


@<TRIPOS>ATOM
      1 C1         -7.7280    2.4872   58.5128 C.3     1  ZINC000989658617    0.0300
      2 O2         -8.0455    1.4533   57.5787 O.3     1  ZINC000989658617   -0.3700
      3 C3         -8.2021    1.9124   56.2345 C.3     1  ZINC000989658617    0.0500
      4 C4         -8.6202    0.7615   55.3561 C.2     1  ZINC000989658617    0.5300
      5 O5         -9.2758   -0.1477   55.8192 O.2     1  ZINC000989658617   -0.5100
      6 N6         -8.2657    0.7427   54.0560 N.am    1  ZINC000989658617   -0.6200
      7 C7         -8.6054   -0.3161   53.0880 C.3     1  ZINC000989658617    0.1000
      8 C8         -7.5142   -0.2172   51.9929 C.3     1  ZINC000989658617   -0.1500
      9 C9         -7.2992    1.3169   51.9050 C.3     1  ZINC000989658617    0.1400
     10 H10        -8.0513    1.7756   51.2630 H       1  ZINC000989658617    0.1100
     11 N11        -5.9508    1.6245   51.4219 N.am    1  ZINC000989658617   -0.7100
     12 C12        -5.7390    1.8440   50.1091 C.2     1  ZINC000989658617    0.6100
     13 O13        -6.6667    1.7853   49.3257 O.2     1  ZINC000989658617   -0.5200
     14 C14        -4.3798    2.1559   49.6223 C.2     1  ZINC000989658617   -0.0100
     15 N15        -3.9088    1.9438   48.4053 N.2     1  ZINC000989658617   -0.2600
     16 N16        -2.6840    2.3363   48.3287 N.pl3   1  ZINC000989658617   -0.3700
     17 C17        -2.2855    2.8344   49.5107 C.2     1  ZINC000989658617    0.0100
     18 C18        -3.3377    2.7412   50.3606 C.2     1  ZINC000989658617   -0.1400
     19 C19        -3.3173    3.1853   51.7973 C.3     1  ZINC000989658617   -0.0400
     20 C20        -1.8542    3.3591   52.2269 C.3     1  ZINC000989658617   -0.0900
     21 H21        -1.3790    2.3810   52.3016 H       1  ZINC000989658617    0.0700
     22 C22        -1.8019    4.0565   53.5877 C.3     1  ZINC000989658617   -0.1500
     23 C23        -1.1141    4.2082   51.1899 C.3     1  ZINC000989658617   -0.1100
     24 C24        -0.9461    3.4108   49.8917 C.3     1  ZINC000989658617   -0.0500
     25 C25        -7.4817    1.7779   53.3665 C.3     1  ZINC000989658617    0.1300
     26 H26        -6.5088    1.8806   53.8471 H       1  ZINC000989658617    0.0800
     27 C27        -8.2229    3.1160   53.4013 C.3     1  ZINC000989658617   -0.1600
     28 H28        -6.7906    2.9625   58.2240 H       1  ZINC000989658617    0.0500
     29 H29        -8.5257    3.2301   58.5174 H       1  ZINC000989658617    0.0400
     30 H30        -7.6257    2.0576   59.5093 H       1  ZINC000989658617    0.0900
     31 H31        -8.9654    2.6898   56.2027 H       1  ZINC000989658617    0.0800
     32 H32        -7.2556    2.3176   55.8764 H       1  ZINC000989658617    0.0800
     33 H33        -8.5732   -1.2940   53.5684 H       1  ZINC000989658617    0.0800
     34 H34        -9.5909   -0.1358   52.6588 H       1  ZINC000989658617    0.0800
     35 H35        -6.6003   -0.7225   52.3053 H       1  ZINC000989658617    0.0800
     36 H36        -7.8748   -0.6162   51.0448 H       1  ZINC000989658617    0.1000
     37 H37        -5.2104    1.6702   52.0469 H       1  ZINC000989658617    0.4100
     38 H38        -2.1309    2.2803   47.5339 H       1  ZINC000989658617    0.4500
     39 H39        -3.8445    4.1343   51.8960 H       1  ZINC000989658617    0.0800
     40 H40        -3.7966    2.4315   52.4218 H       1  ZINC000989658617    0.0800
     41 H41        -2.3281    3.4520   54.3263 H       1  ZINC000989658617    0.0600
     42 H42        -0.7628    4.1800   53.8930 H       1  ZINC000989658617    0.0600
     43 H43        -2.2773    5.0346   53.5133 H       1  ZINC000989658617    0.0600
     44 H44        -1.6875    5.1122   50.9852 H       1  ZINC000989658617    0.0700
     45 H45        -0.1330    4.4816   51.5782 H       1  ZINC000989658617    0.0800
     46 H46        -0.2341    2.6005   50.0479 H       1  ZINC000989658617    0.0800
     47 H47        -0.5868    4.0688   49.1005 H       1  ZINC000989658617    0.0800
     48 H48        -9.2016    3.0014   52.9354 H       1  ZINC000989658617    0.0600
     49 H49        -8.3482    3.4351   54.4360 H       1  ZINC000989658617    0.0700
     50 H50        -7.6469    3.8646   52.8573 H       1  ZINC000989658617    0.0700
@<TRIPOS>BOND
     1     1     2    1
     2     1    28    1
     3     1    29    1
     4     1    30    1
     5     2     3    1
     6     3     4    1
     7     3    31    1
     8     3    32    1
     9     4     5    2
    10     4     6   am
    11     6    25    1
    12     6     7    1
    13     7     8    1
    14     7    33    1
    15     7    34    1
    16     8     9    1
    17     8    35    1
    18     8    36    1
    19     9    10    1
    20     9    11    1
    21     9    25    1
    22    11    12   am
    23    11    37    1
    24    12    13    2
    25    12    14    1
    26    14    18    1
    27    14    15    2
    28    15    16    1
    29    16    17    1
    30    16    38    1
    31    17    24    1
    32    17    18    2
    33    18    19    1
    34    19    20    1
    35    19    39    1
    36    19    40    1
    37    20    21    1
    38    20    22    1
    39    20    23    1
    40    22    41    1
    41    22    42    1
    42    22    43    1
    43    23    24    1
    44    23    44    1
    45    23    45    1
    46    24    46    1
    47    24    47    1
    48    25    26    1
    49    25    27    1
    50    27    48    1
    51    27    49    1
    52    27    50    1
@<TRIPOS>SUBSTRUCTURE
     1 ZINC000989658617        1 TEMP              0 ****  ****    0 ROOT


##########                                Name:    ZINC000266467123
##########                DOCK_Rotatable_Bonds:                   9
##########                         Heavy_Atoms:                  25
##########                    Molecular_Weight:             337.421
##########                DOCK_Rotatable_Bonds:                   9
##########                       Formal_Charge:                0.02
##########                     HBond_Acceptors:                   5
##########                        HBond_Donors:                   3
##########                         Heavy_Atoms:                  25
##########                          Grid_Score:          -31.781281
##########                     Grid_vdw_energy:          -29.329630
##########                      Grid_es_energy:           -2.451651
##########           Internal_energy_repulsive:           12.379642

@<TRIPOS>MOLECULE
ZINC000266467123
 48 50 1 0 0
SMALL
USER_CHARGES


@<TRIPOS>ATOM
      1 C1         -6.8074    0.9075   50.5326 C.3     1  <0>        -0.1600
      2 C2         -6.1090    2.2105   50.1388 C.3     1  <0>         0.1500
      3 H3         -6.0246    2.8560   51.0130 H       1  <0>         0.1200
      4 N4         -6.8915    2.8904   49.1036 N.am    1  <0>        -0.7300
      5 C5         -7.4314    4.1000   49.3522 C.2     1  <0>         0.7100
      6 O6         -7.2678    4.6276   50.4354 O.2     1  <0>        -0.5900
      7 N7         -8.1525    4.7247   48.4004 N.am    1  <0>        -0.7100
      8 C8         -8.7379    6.0402   48.6701 C.3     1  <0>         0.1100
      9 H9         -8.0664    6.8891   48.5411 H       1  <0>         0.1400
     10 C10        -9.7878    6.1324   49.7793 C.3     1  <0>        -0.1900
     11 C11       -10.2114    6.2446   48.3126 C.3     1  <0>        -0.1500
     12 H12       -10.5095    7.2278   47.9486 H       1  <0>         0.1200
     13 C13       -10.9615    5.0594   47.7013 C.3     1  <0>        -0.0500
     14 C14       -12.2360    4.8212   48.4697 C.ar    1  <0>        -0.0800
     15 C15       -12.6175    3.5324   48.7929 C.ar    1  <0>        -0.1100
     16 C16       -13.7863    3.3140   49.4977 C.ar    1  <0>        -0.1200
     17 C17       -14.5735    4.3841   49.8796 C.ar    1  <0>        -0.1200
     18 C18       -14.1915    5.6729   49.5572 C.ar    1  <0>        -0.1200
     19 C19       -13.0204    5.8918   48.8561 C.ar    1  <0>        -0.1200
     20 C20        -4.7330    1.9022   49.6072 C.2     1  <0>         0.5100
     21 O21        -4.3607    0.7513   49.5194 O.2     1  <0>        -0.5100
     22 N22        -3.9162    2.9054   49.2293 N.am    1  <0>        -0.6700
     23 C23        -2.6386    2.6191   48.7357 C.ar    1  <0>         0.1400
     24 C24        -2.4846    2.1327   47.4441 C.ar    1  <0>        -0.1400
     25 C25        -1.2221    1.8510   46.9598 C.ar    1  <0>        -0.1000
     26 C26        -0.1123    2.0524   47.7597 C.ar    1  <0>        -0.1300
     27 C27        -0.2623    2.5362   49.0464 C.ar    1  <0>        -0.1000
     28 C28        -1.5215    2.8261   49.5344 C.ar    1  <0>        -0.1200
     29 H29        -6.2254    0.4016   51.3029 H       1  <0>         0.0700
     30 H30        -7.8027    1.1304   50.9171 H       1  <0>         0.0800
     31 H31        -6.8919    0.2620   49.6584 H       1  <0>         0.0700
     32 H32        -7.0209    2.4700   48.2390 H       1  <0>         0.4100
     33 H33        -8.2840    4.3032   47.5367 H       1  <0>         0.4000
     34 H34       -10.0430    5.2142   50.3082 H       1  <0>         0.1000
     35 H35        -9.8073    7.0420   50.3796 H       1  <0>         0.1000
     36 H36       -11.2003    5.2784   46.6606 H       1  <0>         0.0800
     37 H37       -10.3355    4.1686   47.7508 H       1  <0>         0.0700
     38 H38       -12.0024    2.6964   48.4945 H       1  <0>         0.1200
     39 H39       -14.0847    2.3069   49.7496 H       1  <0>         0.1200
     40 H40       -15.4871    4.2133   50.4297 H       1  <0>         0.1200
     41 H41       -14.8067    6.5090   49.8553 H       1  <0>         0.1200
     42 H42       -12.7220    6.8986   48.6042 H       1  <0>         0.1200
     43 H43        -4.2140    3.8258   49.2995 H       1  <0>         0.4100
     44 H44        -3.3510    1.9745   46.8191 H       1  <0>         0.1300
     45 H45        -1.1017    1.4727   45.9554 H       1  <0>         0.1300
     46 H46         0.8738    1.8311   47.3789 H       1  <0>         0.1200
     47 H47         0.6063    2.6917   49.6690 H       1  <0>         0.1300
     48 H48        -1.6381    3.2038   50.5394 H       1  <0>         0.1400
@<TRIPOS>BOND
     1     1     2    1
     2     1    29    1
     3     1    30    1
     4     1    31    1
     5     2     3    1
     6     2     4    1
     7     2    20    1
     8     4     5   am
     9     4    32    1
    10     5     6    2
    11     5     7   am
    12     7     8    1
    13     7    33    1
    14     8     9    1
    15     8    11    1
    16     8    10    1
    17    10    11    1
    18    10    34    1
    19    10    35    1
    20    11    12    1
    21    11    13    1
    22    13    14    1
    23    13    36    1
    24    13    37    1
    25    14    19   ar
    26    14    15   ar
    27    15    16   ar
    28    15    38    1
    29    16    17   ar
    30    16    39    1
    31    17    18   ar
    32    17    40    1
    33    18    19   ar
    34    18    41    1
    35    19    42    1
    36    20    21    2
    37    20    22   am
    38    22    23    1
    39    22    43    1
    40    23    28   ar
    41    23    24   ar
    42    24    25   ar
    43    24    44    1
    44    25    26   ar
    45    25    45    1
    46    26    27   ar
    47    26    46    1
    48    27    28   ar
    49    27    47    1
    50    28    48    1
@<TRIPOS>SUBSTRUCTURE
     1 <0>         1 TEMP              0 ****  ****    0 ROOT


##########                                Name:    ZINC001061022329
##########                DOCK_Rotatable_Bonds:                   7
##########                         Heavy_Atoms:                  27
##########                    Molecular_Weight:             374.523
##########                DOCK_Rotatable_Bonds:                   7
##########                       Formal_Charge:           0.0800005
##########                     HBond_Acceptors:                   5
##########                        HBond_Donors:                   0
##########                         Heavy_Atoms:                  27
##########                          Grid_Score:          -31.777672
##########                     Grid_vdw_energy:          -30.629122
##########                      Grid_es_energy:           -1.148550
##########           Internal_energy_repulsive:           18.288500

@<TRIPOS>MOLECULE
ZINC001061022329
 61 64 1 0 0
SMALL
USER_CHARGES


@<TRIPOS>ATOM
      1 C1        -12.1487    0.5571   53.0276 C.3     1  ZINC001061022329   -0.1500
      2 C2        -11.6685    0.1423   54.4199 C.3     1  ZINC001061022329   -0.1200
      3 C3        -10.1737    0.4403   54.5536 C.3     1  ZINC001061022329    0.0800
      4 H4        -10.0005    1.5055   54.4005 H       1  ZINC001061022329    0.0600
      5 C5         -9.6974    0.0420   55.9519 C.3     1  ZINC001061022329   -0.1800
      6 O6         -9.4497   -0.3058   53.5732 O.3     1  ZINC001061022329   -0.3500
      7 C7         -8.1597    0.2296   53.2712 C.3     1  ZINC001061022329    0.0500
      8 C8         -8.2960    1.3130   52.2326 C.2     1  ZINC001061022329    0.5200
      9 O9         -9.3954    1.6412   51.8394 O.2     1  ZINC001061022329   -0.5100
     10 N10        -7.1964    1.9172   51.7407 N.am    1  ZINC001061022329   -0.6100
     11 C11        -7.3177    2.9798   50.7339 C.3     1  ZINC001061022329    0.1100
     12 C12        -6.4804    2.5959   49.5082 C.3     1  ZINC001061022329   -0.1200
     13 C13        -5.0619    2.2552   49.9586 C.3     1  ZINC001061022329   -0.0900
     14 C14        -4.0757    2.0703   48.7971 C.3     1  ZINC001061022329    0.1200
     15 N15        -3.1222    2.8403   49.6208 N.am    1  ZINC001061022329   -0.6400
     16 C16        -1.7782    2.9226   49.6802 C.2     1  ZINC001061022329    0.5400
     17 O17        -1.0961    2.2565   48.9306 O.2     1  ZINC001061022329   -0.5300
     18 C18        -1.1231    3.8425   50.6782 C.3     1  ZINC001061022329   -0.0900
     19 H19        -1.8726    4.5103   51.1028 H       1  ZINC001061022329    0.1000
     20 C20        -0.0425    4.6687   49.9771 C.3     1  ZINC001061022329   -0.1000
     21 C21         1.3188    4.3910   50.6275 C.3     1  ZINC001061022329   -0.0600
     22 H22         2.1117    4.9306   50.1097 H       1  ZINC001061022329    0.0800
     23 C23         1.5636    2.8903   50.5742 C.2     1  ZINC001061022329   -0.1800
     24 C24         0.6237    2.1717   51.1839 C.2     1  ZINC001061022329   -0.1300
     25 C25        -0.4864    3.0104   51.7987 C.3     1  ZINC001061022329   -0.0400
     26 H26        -1.2244    2.3755   52.2888 H       1  ZINC001061022329    0.0900
     27 C27         0.1592    3.9719   52.8061 C.3     1  ZINC001061022329   -0.1100
     28 C28         1.2447    4.8145   52.1010 C.3     1  ZINC001061022329   -0.1100
     29 C29        -4.2312    3.4844   50.3526 C.3     1  ZINC001061022329    0.1100
     30 C30        -5.0123    1.1292   50.9882 C.3     1  ZINC001061022329   -0.1100
     31 C31        -5.8598    1.5267   52.2083 C.3     1  ZINC001061022329    0.1100
     32 H32       -11.9770    1.6242   52.8870 H       1  ZINC001061022329    0.0500
     33 H33       -11.5976   -0.0023   52.2717 H       1  ZINC001061022329    0.0600
     34 H34       -13.2135    0.3447   52.9323 H       1  ZINC001061022329    0.0600
     35 H35       -12.2196    0.7017   55.1758 H       1  ZINC001061022329    0.0800
     36 H36       -11.8402   -0.9249   54.5605 H       1  ZINC001061022329    0.0700
     37 H37        -8.6326    0.2542   56.0472 H       1  ZINC001061022329    0.0600
     38 H38       -10.2497    0.6110   56.6997 H       1  ZINC001061022329    0.0700
     39 H39        -9.8706   -1.0233   56.1050 H       1  ZINC001061022329    0.0700
     40 H40        -7.7187    0.6474   54.1762 H       1  ZINC001061022329    0.0800
     41 H41        -7.5181   -0.5634   52.8870 H       1  ZINC001061022329    0.0800
     42 H42        -8.3625    3.0899   50.4430 H       1  ZINC001061022329    0.0900
     43 H43        -6.9506    3.9191   51.1477 H       1  ZINC001061022329    0.0800
     44 H44        -6.9256    1.7292   49.0196 H       1  ZINC001061022329    0.0800
     45 H45        -6.4502    3.4331   48.8107 H       1  ZINC001061022329    0.0800
     46 H46        -3.7787    1.0345   48.6332 H       1  ZINC001061022329    0.0800
     47 H47        -4.3753    2.5786   47.8806 H       1  ZINC001061022329    0.0900
     48 H48        -0.0036    4.3955   48.9226 H       1  ZINC001061022329    0.0700
     49 H49        -0.2793    5.7287   50.0689 H       1  ZINC001061022329    0.0700
     50 H50         2.4204    2.4491   50.0868 H       1  ZINC001061022329    0.1200
     51 H51         0.6469    1.0932   51.2368 H       1  ZINC001061022329    0.1200
     52 H52        -0.6022    4.6387   53.2108 H       1  ZINC001061022329    0.0700
     53 H53         0.6089    3.3996   53.6175 H       1  ZINC001061022329    0.0700
     54 H54         2.2088    4.6366   52.5773 H       1  ZINC001061022329    0.0700
     55 H55         0.9911    5.8717   52.1787 H       1  ZINC001061022329    0.0700
     56 H56        -4.5771    4.4130   49.8983 H       1  ZINC001061022329    0.0900
     57 H57        -4.0577    3.5726   51.4251 H       1  ZINC001061022329    0.0800
     58 H58        -5.4098    0.2148   50.5477 H       1  ZINC001061022329    0.0800
     59 H59        -3.9807    0.9659   51.3003 H       1  ZINC001061022329    0.0800
     60 H60        -5.3883    2.3634   52.7237 H       1  ZINC001061022329    0.0700
     61 H61        -5.9447    0.6778   52.8866 H       1  ZINC001061022329    0.1000
@<TRIPOS>BOND
     1     1     2    1
     2     1    32    1
     3     1    33    1
     4     1    34    1
     5     2     3    1
     6     2    35    1
     7     2    36    1
     8     3     4    1
     9     3     5    1
    10     3     6    1
    11     5    37    1
    12     5    38    1
    13     5    39    1
    14     6     7    1
    15     7     8    1
    16     7    40    1
    17     7    41    1
    18     8     9    2
    19     8    10   am
    20    10    31    1
    21    10    11    1
    22    11    12    1
    23    11    42    1
    24    11    43    1
    25    12    13    1
    26    12    44    1
    27    12    45    1
    28    13    29    1
    29    13    14    1
    30    13    30    1
    31    14    15    1
    32    14    46    1
    33    14    47    1
    34    15    16   am
    35    15    29    1
    36    16    17    2
    37    16    18    1
    38    18    19    1
    39    18    25    1
    40    18    20    1
    41    20    21    1
    42    20    48    1
    43    20    49    1
    44    21    22    1
    45    21    28    1
    46    21    23    1
    47    23    24    2
    48    23    50    1
    49    24    25    1
    50    24    51    1
    51    25    26    1
    52    25    27    1
    53    27    28    1
    54    27    52    1
    55    27    53    1
    56    28    54    1
    57    28    55    1
    58    29    56    1
    59    29    57    1
    60    30    31    1
    61    30    58    1
    62    30    59    1
    63    31    60    1
    64    31    61    1
@<TRIPOS>SUBSTRUCTURE
     1 ZINC001061022329        1 TEMP              0 ****  ****    0 ROOT


##########                                Name:    ZINC000031496632
##########                DOCK_Rotatable_Bonds:                   8
##########                         Heavy_Atoms:                  30
##########                    Molecular_Weight:             423.539
##########                DOCK_Rotatable_Bonds:                   8
##########                       Formal_Charge:          -0.0100009
##########                     HBond_Acceptors:                   8
##########                        HBond_Donors:                   1
##########                         Heavy_Atoms:                  30
##########                          Grid_Score:          -31.753824
##########                     Grid_vdw_energy:          -31.925419
##########                      Grid_es_energy:            0.171594
##########           Internal_energy_repulsive:           11.720091

@<TRIPOS>MOLECULE
ZINC000031496632
 55 58 1 0 0
SMALL
USER_CHARGES


@<TRIPOS>ATOM
      1 C1          2.5921    1.0872   49.9508 C.3     1  ZINC000031496632   -0.1600
      2 C2          2.4480    1.9666   48.7071 C.3     1  ZINC000031496632    0.1600
      3 C3          3.5064    1.5692   47.6762 C.3     1  ZINC000031496632   -0.1600
      4 N4          1.1132    1.7839   48.1318 N.pl3   1  ZINC000031496632   -0.3900
      5 N5          0.8197    1.0347   46.9883 N.2     1  ZINC000031496632   -0.2300
      6 C6         -0.4588    1.0733   46.7437 C.2     1  ZINC000031496632    0.0800
      7 C7         -1.0826    1.8946   47.7754 C.ar    1  ZINC000031496632   -0.2100
      8 C8         -2.3972    2.2951   48.0406 C.ar    1  ZINC000031496632    0.0100
      9 C9         -2.6214    3.1025   49.1448 C.ar    1  ZINC000031496632    0.0500
     10 N10        -3.9183    3.5315   49.4556 N.am    1  ZINC000031496632   -0.6600
     11 C11        -4.5716    2.9965   50.5060 C.2     1  ZINC000031496632    0.5500
     12 O12        -4.0353    2.1411   51.1842 O.2     1  ZINC000031496632   -0.4900
     13 C13        -5.9358    3.4479   50.8330 C.ar    1  ZINC000031496632   -0.1300
     14 C14        -6.2043    4.8083   51.0033 C.ar    1  ZINC000031496632   -0.0600
     15 C15        -7.4818    5.2239   51.3091 C.ar    1  ZINC000031496632   -0.1400
     16 C16        -8.5048    4.2992   51.4494 C.ar    1  ZINC000031496632   -0.0600
     17 C17        -8.2566    2.9521   51.2849 C.ar    1  ZINC000031496632   -0.1500
     18 C18        -6.9758    2.5136   50.9697 C.ar    1  ZINC000031496632   -0.0600
     19 S19        -6.6553    0.7939   50.7583 S.3     1  ZINC000031496632    0.0900
     20 C20        -6.9424    0.1184   52.4171 C.3     1  ZINC000031496632   -0.2000
     21 C21        -8.4076   -0.1904   52.5870 C.2     1  ZINC000031496632    0.5500
     22 O22        -8.9962   -0.8247   51.7373 O.2     1  ZINC000031496632   -0.5200
     23 N23        -9.0639    0.2386   53.6833 N.am    1  ZINC000031496632   -0.6200
     24 C24       -10.4846    0.0024   53.9788 C.3     1  ZINC000031496632    0.1000
     25 C25       -10.7953    0.6981   55.3208 C.3     1  ZINC000031496632   -0.1300
     26 C26        -9.6738    1.7649   55.4270 C.3     1  ZINC000031496632   -0.1300
     27 C27        -8.4744    1.0170   54.7879 C.3     1  ZINC000031496632    0.1000
     28 C28        -1.5440    3.4828   49.9431 C.ar    1  ZINC000031496632    0.1600
     29 N29        -0.3178    3.0933   49.6726 N.ar    1  ZINC000031496632   -0.4900
     30 C30        -0.0462    2.3152   48.6325 C.ar    1  ZINC000031496632    0.3000
     31 H31         3.5853    1.2231   50.3789 H       1  ZINC000031496632    0.0800
     32 H32         1.8381    1.3703   50.6853 H       1  ZINC000031496632    0.0600
     33 H33         2.4555    0.0417   49.6745 H       1  ZINC000031496632    0.0700
     34 H34         2.5847    3.0121   48.9836 H       1  ZINC000031496632    0.1100
     35 H35         4.4996    1.7050   48.1043 H       1  ZINC000031496632    0.0800
     36 H36         3.3699    0.5236   47.3998 H       1  ZINC000031496632    0.0700
     37 H37         3.4038    2.1956   46.7902 H       1  ZINC000031496632    0.0600
     38 H38        -0.9660    0.5855   45.9244 H       1  ZINC000031496632    0.2000
     39 H39        -3.2124    1.9849   47.4036 H       1  ZINC000031496632    0.1500
     40 H40        -4.3461    4.2137   48.9148 H       1  ZINC000031496632    0.4100
     41 H41        -5.4112    5.5335   50.8960 H       1  ZINC000031496632    0.1300
     42 H42        -7.6873    6.2760   51.4403 H       1  ZINC000031496632    0.1300
     43 H43        -9.5027    4.6354   51.6895 H       1  ZINC000031496632    0.1300
     44 H44        -9.0591    2.2381   51.3967 H       1  ZINC000031496632    0.1300
     45 H45        -6.3616   -0.7954   52.5428 H       1  ZINC000031496632    0.1100
     46 H46        -6.6360    0.8495   53.1652 H       1  ZINC000031496632    0.1100
     47 H47       -11.1032    0.4280   53.1886 H       1  ZINC000031496632    0.0700
     48 H48       -10.6726   -1.0679   54.0636 H       1  ZINC000031496632    0.0700
     49 H49       -11.7766    1.1717   55.2916 H       1  ZINC000031496632    0.0900
     50 H50       -10.7326   -0.0110   56.1462 H       1  ZINC000031496632    0.0800
     51 H51        -9.9295    2.6586   54.8578 H       1  ZINC000031496632    0.0800
     52 H52        -9.4676    2.0125   56.4684 H       1  ZINC000031496632    0.0900
     53 H53        -8.0071    0.3558   55.5177 H       1  ZINC000031496632    0.0700
     54 H54        -7.7466    1.7293   54.3993 H       1  ZINC000031496632    0.0800
     55 H55        -1.7204    4.1118   50.8031 H       1  ZINC000031496632    0.1700
@<TRIPOS>BOND
     1     1     2    1
     2     1    31    1
     3     1    32    1
     4     1    33    1
     5     2     3    1
     6     2     4    1
     7     2    34    1
     8     3    35    1
     9     3    36    1
    10     3    37    1
    11     4    30    1
    12     4     5    1
    13     5     6    2
    14     6     7    1
    15     6    38    1
    16     7    30   ar
    17     7     8   ar
    18     8     9   ar
    19     8    39    1
    20     9    10    1
    21     9    28   ar
    22    10    11   am
    23    10    40    1
    24    11    12    2
    25    11    13    1
    26    13    18   ar
    27    13    14   ar
    28    14    15   ar
    29    14    41    1
    30    15    16   ar
    31    15    42    1
    32    16    17   ar
    33    16    43    1
    34    17    18   ar
    35    17    44    1
    36    18    19    1
    37    19    20    1
    38    20    21    1
    39    20    45    1
    40    20    46    1
    41    21    22    2
    42    21    23   am
    43    23    27    1
    44    23    24    1
    45    24    25    1
    46    24    47    1
    47    24    48    1
    48    25    26    1
    49    25    49    1
    50    25    50    1
    51    26    27    1
    52    26    51    1
    53    26    52    1
    54    27    53    1
    55    27    54    1
    56    28    29   ar
    57    28    55    1
    58    29    30   ar
@<TRIPOS>SUBSTRUCTURE
     1 ZINC000031496632        1 TEMP              0 ****  ****    0 ROOT


##########                                Name:    ZINC000432833246
##########                DOCK_Rotatable_Bonds:                   5
##########                         Heavy_Atoms:                  25
##########                    Molecular_Weight:             400.318
##########                DOCK_Rotatable_Bonds:                   5
##########                       Formal_Charge:        -3.20375e-07
##########                     HBond_Acceptors:                   4
##########                        HBond_Donors:                   1
##########                         Heavy_Atoms:                  25
##########                          Grid_Score:          -31.749619
##########                     Grid_vdw_energy:          -31.238180
##########                      Grid_es_energy:           -0.511439
##########           Internal_energy_repulsive:            8.748068

@<TRIPOS>MOLECULE
ZINC000432833246
 47 51 1 0 0
SMALL
USER_CHARGES


@<TRIPOS>ATOM
      1 O1         -9.2730   -0.2123   52.1154 O.2     1  ZINC000432833246   -0.5200
      2 C2         -8.3555    0.4925   51.7516 C.2     1  ZINC000432833246    0.5200
      3 C3         -7.1159    0.0012   51.0368 C.3     1  ZINC000432833246   -0.1500
      4 C4         -6.4918    1.2821   50.4362 C.3     1  ZINC000432833246   -0.1100
      5 H5         -6.8330    1.4394   49.4130 H       1  ZINC000432833246    0.1000
      6 C6         -4.9641    1.2280   50.4988 C.3     1  ZINC000432833246    0.1300
      7 N7         -4.4045    2.3657   49.7647 N.pl3   1  ZINC000432833246   -0.7200
      8 C8         -3.0334    2.4684   49.5854 C.ar    1  ZINC000432833246    0.2800
      9 C9         -2.1864    2.8683   50.6463 C.ar    1  ZINC000432833246   -0.1500
     10 C10        -2.7000    3.1739   51.9144 C.ar    1  ZINC000432833246   -0.0700
     11 C11        -1.8525    3.5549   52.9109 C.ar    1  ZINC000432833246   -0.1300
     12 C12        -0.4811    3.6453   52.6859 C.ar    1  ZINC000432833246   -0.0600
     13 C13         0.0507    3.3555   51.4658 C.ar    1  ZINC000432833246   -0.0800
     14 Br14        1.9168    3.4860   51.1885 Br      1  ZINC000432833246   -0.0300
     15 C15        -0.7934    2.9582   50.4134 C.ar    1  ZINC000432833246    0.1900
     16 N16        -0.2980    2.6671   49.2053 N.ar    1  ZINC000432833246   -0.5000
     17 C17        -1.0734    2.2947   48.2136 C.ar    1  ZINC000432833246    0.2400
     18 C18        -0.4526    1.9808   46.8768 C.3     1  ZINC000432833246   -0.1100
     19 C19         0.7932    2.7721   46.4732 C.3     1  ZINC000432833246   -0.1700
     20 C20         0.9183    1.3016   46.8766 C.3     1  ZINC000432833246   -0.1600
     21 C21        -2.4483    2.1773   48.3630 C.ar    1  ZINC000432833246   -0.2700
     22 C22        -7.0462    2.3740   51.3778 C.3     1  ZINC000432833246    0.1100
     23 N23        -8.2947    1.8248   51.9196 N.am    1  ZINC000432833246   -0.5900
     24 C24        -9.3368    2.6245   52.5682 C.3     1  ZINC000432833246    0.0800
     25 C25       -10.1370    3.5884   51.6899 C.3     1  ZINC000432833246   -0.1900
     26 C26       -10.7917    2.3092   52.2152 C.3     1  ZINC000432833246   -0.1900
     27 H27        -6.4277   -0.4637   51.7426 H       1  ZINC000432833246    0.1100
     28 H28        -7.3841   -0.6995   50.2461 H       1  ZINC000432833246    0.1000
     29 H29        -4.6412    1.2726   51.5390 H       1  ZINC000432833246    0.0800
     30 H30        -4.6147    0.2983   50.0495 H       1  ZINC000432833246    0.0700
     31 H31        -4.9933    3.0469   49.4040 H       1  ZINC000432833246    0.4000
     32 H32        -3.7618    3.1081   52.1004 H       1  ZINC000432833246    0.1300
     33 H33        -2.2492    3.7902   53.8875 H       1  ZINC000432833246    0.1400
     34 H34         0.1708    3.9502   53.4911 H       1  ZINC000432833246    0.1400
     35 H35        -1.1513    1.7044   46.0872 H       1  ZINC000432833246    0.1300
     36 H36         0.9141    3.0166   45.4179 H       1  ZINC000432833246    0.1000
     37 H37         1.1637    3.5197   47.1746 H       1  ZINC000432833246    0.1000
     38 H38         1.3713    1.0817   47.8433 H       1  ZINC000432833246    0.0900
     39 H39         1.1217    0.5786   46.0866 H       1  ZINC000432833246    0.1000
     40 H40        -3.0602    1.8682   47.5285 H       1  ZINC000432833246    0.1400
     41 H41        -6.3377    2.5742   52.1816 H       1  ZINC000432833246    0.0800
     42 H42        -7.2503    3.2867   50.8180 H       1  ZINC000432833246    0.0900
     43 H43        -9.1230    2.9348   53.5910 H       1  ZINC000432833246    0.1300
     44 H44       -10.4497    4.5331   52.1346 H       1  ZINC000432833246    0.1000
     45 H45        -9.8881    3.6275   50.6293 H       1  ZINC000432833246    0.1300
     46 H46       -10.9736    1.5068   51.5003 H       1  ZINC000432833246    0.0900
     47 H47       -11.5351    2.4124   53.0057 H       1  ZINC000432833246    0.1000
@<TRIPOS>BOND
     1     1     2    2
     2     2    23   am
     3     2     3    1
     4     3     4    1
     5     3    27    1
     6     3    28    1
     7     4     5    1
     8     4     6    1
     9     4    22    1
    10     6     7    1
    11     6    29    1
    12     6    30    1
    13     7     8    1
    14     7    31    1
    15     8    21   ar
    16     8     9   ar
    17     9    15   ar
    18     9    10   ar
    19    10    11   ar
    20    10    32    1
    21    11    12   ar
    22    11    33    1
    23    12    13   ar
    24    12    34    1
    25    13    14    1
    26    13    15   ar
    27    15    16   ar
    28    16    17   ar
    29    17    18    1
    30    17    21   ar
    31    18    20    1
    32    18    19    1
    33    18    35    1
    34    19    20    1
    35    19    36    1
    36    19    37    1
    37    20    38    1
    38    20    39    1
    39    21    40    1
    40    22    23    1
    41    22    41    1
    42    22    42    1
    43    23    24    1
    44    24    26    1
    45    24    25    1
    46    24    43    1
    47    25    26    1
    48    25    44    1
    49    25    45    1
    50    26    46    1
    51    26    47    1
@<TRIPOS>SUBSTRUCTURE
     1 ZINC000432833246        1 TEMP              0 ****  ****    0 ROOT


##########                                Name:    ZINC001344051361
##########                DOCK_Rotatable_Bonds:                   8
##########                         Heavy_Atoms:                  28
##########                    Molecular_Weight:             379.456
##########                DOCK_Rotatable_Bonds:                   8
##########                       Formal_Charge:          -0.0100006
##########                     HBond_Acceptors:                   5
##########                        HBond_Donors:                   0
##########                         Heavy_Atoms:                  28
##########                          Grid_Score:          -31.738173
##########                     Grid_vdw_energy:          -31.324457
##########                      Grid_es_energy:           -0.413715
##########           Internal_energy_repulsive:           19.148523

@<TRIPOS>MOLECULE
ZINC001344051361
 53 56 1 0 0
SMALL
USER_CHARGES


@<TRIPOS>ATOM
      1 O1         -0.9224    2.4610   48.0989 O.2     1  ZINC001344051361   -0.4800
      2 C2         -0.9342    3.0169   49.1716 C.2     1  ZINC001344051361    0.4800
      3 O3         -2.0814    3.1221   49.8604 O.3     1  ZINC001344051361   -0.3500
      4 C4         -3.1867    2.2833   49.4323 C.3     1  ZINC001344051361    0.0700
      5 C5         -4.3167    2.3645   50.4607 C.3     1  ZINC001344051361   -0.1000
      6 H6         -3.8986    2.3077   51.4658 H       1  ZINC001344051361    0.0900
      7 C7         -5.0657    3.6884   50.2931 C.3     1  ZINC001344051361   -0.1200
      8 C8         -6.1754    3.7851   51.3426 C.3     1  ZINC001344051361   -0.1300
      9 C9         -7.1692    2.6378   51.1362 C.3     1  ZINC001344051361    0.0800
     10 N10        -6.4333    1.3661   51.1514 N.am    1  ZINC001344051361   -0.6100
     11 C11        -6.8009    0.3699   51.9815 C.2     1  ZINC001344051361    0.5600
     12 O12        -6.1839   -0.6774   51.9846 O.2     1  ZINC001344051361   -0.5300
     13 C13        -7.9546    0.5510   52.8882 C.ar    1  ZINC001344051361   -0.1300
     14 C14        -9.1796   -0.0488   52.5921 C.ar    1  ZINC001344051361   -0.1000
     15 C15       -10.2521    0.1237   53.4427 C.ar    1  ZINC001344051361   -0.1300
     16 C16       -10.1153    0.8896   54.5868 C.ar    1  ZINC001344051361   -0.0900
     17 C17        -8.9038    1.4873   54.8859 C.ar    1  ZINC001344051361   -0.1300
     18 C18        -7.8217    1.3176   54.0470 C.ar    1  ZINC001344051361   -0.0600
     19 C19        -5.2890    1.2006   50.2449 C.3     1  ZINC001344051361    0.1200
     20 C20         0.3403    3.5864   49.7391 C.3     1  ZINC001344051361    0.0200
     21 O21         1.5488    3.0882   49.1616 O.3     1  ZINC001344051361   -0.2500
     22 C22         1.8986    1.8114   49.4682 C.ar    1  ZINC001344051361    0.1200
     23 C23         1.1711    1.0988   50.4104 C.ar    1  ZINC001344051361   -0.2000
     24 C24         1.5284   -0.1992   50.7200 C.ar    1  ZINC001344051361   -0.0800
     25 C25         2.6103   -0.7882   50.0920 C.ar    1  ZINC001344051361   -0.1500
     26 C26         3.3371   -0.0801   49.1529 C.ar    1  ZINC001344051361   -0.0800
     27 C27         2.9801    1.2161   48.8353 C.ar    1  ZINC001344051361   -0.1400
     28 C28         0.3221    5.0489   50.1883 C.3     1  ZINC001344051361   -0.1700
     29 C29         0.3588    3.9289   51.2301 C.3     1  ZINC001344051361   -0.1100
     30 H30        -3.5508    2.6281   48.4645 H       1  ZINC001344051361    0.0800
     31 H31        -2.8473    1.2512   49.3461 H       1  ZINC001344051361    0.0800
     32 H32        -4.3705    4.5179   50.4223 H       1  ZINC001344051361    0.0700
     33 H33        -5.5039    3.7341   49.2961 H       1  ZINC001344051361    0.0700
     34 H34        -5.7404    3.7147   52.3396 H       1  ZINC001344051361    0.0700
     35 H35        -6.6934    4.7384   51.2376 H       1  ZINC001344051361    0.0800
     36 H36        -7.9057    2.6433   51.9397 H       1  ZINC001344051361    0.1100
     37 H37        -7.6716    2.7577   50.1764 H       1  ZINC001344051361    0.0700
     38 H38        -9.2879   -0.6462   51.6990 H       1  ZINC001344051361    0.1400
     39 H39       -11.2006   -0.3398   53.2148 H       1  ZINC001344051361    0.1300
     40 H40       -10.9580    1.0218   55.2492 H       1  ZINC001344051361    0.1300
     41 H41        -8.8038    2.0841   55.7803 H       1  ZINC001344051361    0.1300
     42 H42        -6.8766    1.7844   54.2817 H       1  ZINC001344051361    0.1300
     43 H43        -5.6376    1.2033   49.2121 H       1  ZINC001344051361    0.0700
     44 H44        -4.7856    0.2580   50.4602 H       1  ZINC001344051361    0.1000
     45 H45         0.3264    1.5588   50.9018 H       1  ZINC001344051361    0.1300
     46 H46         0.9624   -0.7543   51.4535 H       1  ZINC001344051361    0.1300
     47 H47         2.8882   -1.8030   50.3357 H       1  ZINC001344051361    0.1300
     48 H48         4.1820   -0.5422   48.6640 H       1  ZINC001344051361    0.1300
     49 H49         3.5482    1.7689   48.1017 H       1  ZINC001344051361    0.1300
     50 H50         1.2319    5.6313   50.0435 H       1  ZINC001344051361    0.1200
     51 H51        -0.6118    5.5990   50.0735 H       1  ZINC001344051361    0.1200
     52 H52        -0.5510    3.7423   51.8007 H       1  ZINC001344051361    0.1200
     53 H53         1.2927    3.7746   51.7706 H       1  ZINC001344051361    0.1200
@<TRIPOS>BOND
     1     1     2    2
     2     2     3    1
     3     2    20    1
     4     3     4    1
     5     4     5    1
     6     4    30    1
     7     4    31    1
     8     5     6    1
     9     5    19    1
    10     5     7    1
    11     7     8    1
    12     7    32    1
    13     7    33    1
    14     8     9    1
    15     8    34    1
    16     8    35    1
    17     9    10    1
    18     9    36    1
    19     9    37    1
    20    10    11   am
    21    10    19    1
    22    11    12    2
    23    11    13    1
    24    13    18   ar
    25    13    14   ar
    26    14    15   ar
    27    14    38    1
    28    15    16   ar
    29    15    39    1
    30    16    17   ar
    31    16    40    1
    32    17    18   ar
    33    17    41    1
    34    18    42    1
    35    19    43    1
    36    19    44    1
    37    20    29    1
    38    20    21    1
    39    20    28    1
    40    21    22    1
    41    22    27   ar
    42    22    23   ar
    43    23    24   ar
    44    23    45    1
    45    24    25   ar
    46    24    46    1
    47    25    26   ar
    48    25    47    1
    49    26    27   ar
    50    26    48    1
    51    27    49    1
    52    28    29    1
    53    28    50    1
    54    28    51    1
    55    29    52    1
    56    29    53    1
@<TRIPOS>SUBSTRUCTURE
     1 ZINC001344051361        1 TEMP              0 ****  ****    0 ROOT


##########                                Name:    ZINC000443394081
##########                DOCK_Rotatable_Bonds:                   8
##########                         Heavy_Atoms:                  27
##########                    Molecular_Weight:             389.878
##########                DOCK_Rotatable_Bonds:                   8
##########                       Formal_Charge:          -0.0300003
##########                     HBond_Acceptors:                   6
##########                        HBond_Donors:                   1
##########                         Heavy_Atoms:                  27
##########                          Grid_Score:          -31.732693
##########                     Grid_vdw_energy:          -31.038498
##########                      Grid_es_energy:           -0.694194
##########           Internal_energy_repulsive:           30.895084

@<TRIPOS>MOLECULE
ZINC000443394081
 51 53 1 0 0
SMALL
USER_CHARGES


@<TRIPOS>ATOM
      1 C1         -7.4909    4.1697   49.4558 C.3     1  ZINC000443394081    0.0200
      2 O2         -7.0075    2.9029   49.0043 O.3     1  ZINC000443394081   -0.3000
      3 C3         -6.7453    1.9673   49.9557 C.ar    1  ZINC000443394081    0.1000
      4 C4         -7.6667    1.7210   50.9546 C.ar    1  ZINC000443394081   -0.1200
      5 C5         -7.3942    0.7584   51.9306 C.ar    1  ZINC000443394081   -0.1300
      6 C6         -8.3757    0.4909   53.0001 C.2     1  ZINC000443394081    0.5700
      7 O7         -9.3419   -0.2124   52.7765 O.2     1  ZINC000443394081   -0.4900
      8 N8         -8.2009    1.0262   54.2245 N.am    1  ZINC000443394081   -0.6100
      9 C9         -7.0798    1.8929   54.6312 C.3     1  ZINC000443394081    0.0900
     10 C10        -7.6256    2.7121   55.8274 C.3     1  ZINC000443394081   -0.1300
     11 C11        -8.5117    1.6609   56.5463 C.3     1  ZINC000443394081   -0.1000
     12 H12        -7.9080    1.0268   57.1956 H       1  ZINC000443394081    0.0900
     13 C13        -9.6241    2.3450   57.3434 C.3     1  ZINC000443394081   -0.1500
     14 C14        -9.1000    0.8480   55.3741 C.3     1  ZINC000443394081    0.1400
     15 H15        -9.1466   -0.2077   55.6415 H       1  ZINC000443394081    0.0800
     16 C16       -10.5011    1.3613   55.0362 C.3     1  ZINC000443394081    0.0600
     17 O17       -10.4035    2.6588   54.4454 O.3     1  ZINC000443394081   -0.5400
     18 C18        -6.1913    0.0497   51.8915 C.ar    1  ZINC000443394081   -0.1000
     19 C19        -5.2757    0.3006   50.8922 C.ar    1  ZINC000443394081   -0.1800
     20 C20        -5.5486    1.2524   49.9196 C.ar    1  ZINC000443394081    0.1300
     21 O21        -4.6434    1.4960   48.9371 O.3     1  ZINC000443394081   -0.3000
     22 C22        -3.9783    2.7605   48.9668 C.3     1  ZINC000443394081    0.1000
     23 C23        -2.6883    2.6317   49.7350 C.ar    1  ZINC000443394081   -0.0800
     24 C24        -2.6746    2.8349   51.1019 C.ar    1  ZINC000443394081   -0.0800
     25 C25        -1.4911    2.7169   51.8069 C.ar    1  ZINC000443394081   -0.1100
     26 C26        -0.3209    2.3960   51.1451 C.ar    1  ZINC000443394081   -0.1000
     27 C27        -0.3333    2.1925   49.7778 C.ar    1  ZINC000443394081   -0.1100
     28 C28        -1.5182    2.3044   49.0728 C.ar    1  ZINC000443394081   -0.0300
     29 Cl29       -1.5346    2.0490   47.3559 Cl      1  ZINC000443394081   -0.0700
     30 H30        -7.6590    4.8210   48.5982 H       1  ZINC000443394081    0.1000
     31 H31        -8.4277    4.0298   49.9951 H       1  ZINC000443394081    0.0600
     32 H32        -6.7545    4.6243   50.1186 H       1  ZINC000443394081    0.0600
     33 H33        -8.5955    2.2713   50.9816 H       1  ZINC000443394081    0.1500
     34 H34        -6.2272    1.2893   54.9423 H       1  ZINC000443394081    0.0700
     35 H35        -6.7977    2.5568   53.8140 H       1  ZINC000443394081    0.0800
     36 H36        -6.8145    3.0471   56.4739 H       1  ZINC000443394081    0.0900
     37 H37        -8.2226    3.5564   55.4827 H       1  ZINC000443394081    0.0800
     38 H38       -10.2334    2.9496   56.6717 H       1  ZINC000443394081    0.0600
     39 H39       -10.2488    1.5884   57.8185 H       1  ZINC000443394081    0.0600
     40 H40        -9.1829    2.9842   58.1082 H       1  ZINC000443394081    0.0600
     41 H41       -10.9791    0.6776   54.3346 H       1  ZINC000443394081    0.0600
     42 H42       -11.0958    1.4209   55.9477 H       1  ZINC000443394081    0.0400
     43 H43       -11.2571    3.0551   54.2234 H       1  ZINC000443394081    0.3700
     44 H44        -5.9784   -0.6946   52.6445 H       1  ZINC000443394081    0.1400
     45 H45        -4.3458   -0.2478   50.8634 H       1  ZINC000443394081    0.1400
     46 H46        -3.7637    3.0821   47.9476 H       1  ZINC000443394081    0.0800
     47 H47        -4.6187    3.4965   49.4528 H       1  ZINC000443394081    0.0800
     48 H48        -3.5886    3.0864   51.6195 H       1  ZINC000443394081    0.1400
     49 H49        -1.4810    2.8757   52.8751 H       1  ZINC000443394081    0.1300
     50 H50         0.6035    2.3046   51.6961 H       1  ZINC000443394081    0.1300
     51 H51         0.5812    1.9417   49.2607 H       1  ZINC000443394081    0.1400
@<TRIPOS>BOND
     1     1     2    1
     2     1    30    1
     3     1    31    1
     4     1    32    1
     5     2     3    1
     6     3    20   ar
     7     3     4   ar
     8     4     5   ar
     9     4    33    1
    10     5     6    1
    11     5    18   ar
    12     6     7    2
    13     6     8   am
    14     8    14    1
    15     8     9    1
    16     9    10    1
    17     9    34    1
    18     9    35    1
    19    10    11    1
    20    10    36    1
    21    10    37    1
    22    11    12    1
    23    11    13    1
    24    11    14    1
    25    13    38    1
    26    13    39    1
    27    13    40    1
    28    14    15    1
    29    14    16    1
    30    16    17    1
    31    16    41    1
    32    16    42    1
    33    17    43    1
    34    18    19   ar
    35    18    44    1
    36    19    20   ar
    37    19    45    1
    38    20    21    1
    39    21    22    1
    40    22    23    1
    41    22    46    1
    42    22    47    1
    43    23    28   ar
    44    23    24   ar
    45    24    25   ar
    46    24    48    1
    47    25    26   ar
    48    25    49    1
    49    26    27   ar
    50    26    50    1
    51    27    28   ar
    52    27    51    1
    53    28    29    1
@<TRIPOS>SUBSTRUCTURE
     1 ZINC000443394081        1 TEMP              0 ****  ****    0 ROOT


##########                                Name:    ZINC001579482641
##########                DOCK_Rotatable_Bonds:                   5
##########                         Heavy_Atoms:                  26
##########                    Molecular_Weight:             355.359
##########                DOCK_Rotatable_Bonds:                   5
##########                       Formal_Charge:                0.05
##########                     HBond_Acceptors:                  11
##########                        HBond_Donors:                   1
##########                         Heavy_Atoms:                  26
##########                          Grid_Score:          -31.731276
##########                     Grid_vdw_energy:          -31.495279
##########                      Grid_es_energy:           -0.235996
##########           Internal_energy_repulsive:           18.229986

@<TRIPOS>MOLECULE
ZINC001579482641
 43 46 1 0 0
SMALL
USER_CHARGES


@<TRIPOS>ATOM
      1 C1          1.6502    1.0046   49.8082 C.3     1  ZINC001579482641    0.0300
      2 O2          1.5453    1.8255   48.6150 O.3     1  ZINC001579482641   -0.3300
      3 C3          0.7647    2.9208   48.6930 C.2     1  ZINC001579482641    0.5300
      4 O4          1.2206    4.0124   48.4164 O.2     1  ZINC001579482641   -0.4900
      5 C5         -0.6455    2.7945   49.1147 C.ar    1  ZINC001579482641    0.0900
      6 C6         -1.5717    2.2031   48.2539 C.ar    1  ZINC001579482641   -0.0800
      7 C7         -2.8907    2.0873   48.6535 C.ar    1  ZINC001579482641   -0.1200
      8 C8         -3.2497    2.5686   49.9102 C.ar    1  ZINC001579482641    0.1100
      9 N9         -4.5623    2.4724   50.3517 N.3     1  ZINC001579482641   -0.4600
     10 C10        -5.5063    3.0026   49.3349 C.3     1  ZINC001579482641    0.0400
     11 C11        -6.8563    2.3547   49.7323 C.3     1  ZINC001579482641   -0.1100
     12 C12        -6.4382    0.9392   50.1925 C.3     1  ZINC001579482641   -0.0100
     13 H13        -6.5692    0.2235   49.3808 H       1  ZINC001579482641    0.0900
     14 C14        -7.2456    0.5200   51.3938 C.2     1  ZINC001579482641    0.1800
     15 N15        -8.1127   -0.4544   51.4414 N.2     1  ZINC001579482641   -0.2600
     16 N16        -8.6133   -0.5311   52.6234 N.2     1  ZINC001579482641   -0.2900
     17 C17        -8.0884    0.3909   53.3836 C.2     1  ZINC001579482641    0.1500
     18 N18        -7.2017    1.0810   52.6264 N.pl3   1  ZINC001579482641   -0.4800
     19 C19        -6.3706    2.2101   53.0515 C.3     1  ZINC001579482641    0.0700
     20 C20        -4.9484    1.0604   50.5628 C.3     1  ZINC001579482641    0.0600
     21 C21        -2.2651    3.1526   50.7254 C.ar    1  ZINC001579482641    0.2300
     22 C22        -2.6325    3.6698   52.0664 C.2     1  ZINC001579482641    0.2100
     23 N23        -3.6309    4.4826   52.3507 N.2     1  ZINC001579482641   -0.2600
     24 N24        -3.6165    4.6953   53.6217 N.pl3   1  ZINC001579482641   -0.2300
     25 N25        -2.6410    4.0436   54.1517 N.2     1  ZINC001579482641   -0.0500
     26 N26        -2.0171    3.3972   53.2262 N.2     1  ZINC001579482641   -0.2000
     27 N27        -1.0145    3.2401   50.3100 N.ar    1  ZINC001579482641   -0.4000
     28 H28         0.6614    0.6403   50.0867 H       1  ZINC001579482641    0.0700
     29 H29         2.3069    0.1574   49.6097 H       1  ZINC001579482641    0.1100
     30 H30         2.0612    1.5997   50.6236 H       1  ZINC001579482641    0.0700
     31 H31        -1.2614    1.8400   47.2852 H       1  ZINC001579482641    0.1600
     32 H32        -3.6261    1.6339   48.0053 H       1  ZINC001579482641    0.1600
     33 H33        -5.5680    4.0892   49.3967 H       1  ZINC001579482641    0.1000
     34 H34        -5.2091    2.6896   48.3340 H       1  ZINC001579482641    0.0600
     35 H35        -7.3219    2.9043   50.5504 H       1  ZINC001579482641    0.1000
     36 H36        -7.5252    2.2992   48.8735 H       1  ZINC001579482641    0.0800
     37 H37        -8.3157    0.5683   54.4245 H       1  ZINC001579482641    0.2200
     38 H38        -5.4204    1.8380   53.4345 H       1  ZINC001579482641    0.0800
     39 H39        -6.1874    2.8670   52.2012 H       1  ZINC001579482641    0.0900
     40 H40        -6.8858    2.7656   53.8353 H       1  ZINC001579482641    0.0900
     41 H41        -4.3522    0.4124   49.9204 H       1  ZINC001579482641    0.0600
     42 H42        -4.8022    0.7878   51.6080 H       1  ZINC001579482641    0.1000
     43 H43        -4.2423    5.2586   54.1034 H       1  ZINC001579482641    0.4800
@<TRIPOS>BOND
     1     1     2    1
     2     1    28    1
     3     1    29    1
     4     1    30    1
     5     2     3    1
     6     3     4    2
     7     3     5    1
     8     5    27   ar
     9     5     6   ar
    10     6     7   ar
    11     6    31    1
    12     7     8   ar
    13     7    32    1
    14     8     9    1
    15     8    21   ar
    16     9    20    1
    17     9    10    1
    18    10    11    1
    19    10    33    1
    20    10    34    1
    21    11    12    1
    22    11    35    1
    23    11    36    1
    24    12    13    1
    25    12    14    1
    26    12    20    1
    27    14    18    1
    28    14    15    2
    29    15    16    1
    30    16    17    2
    31    17    18    1
    32    17    37    1
    33    18    19    1
    34    19    38    1
    35    19    39    1
    36    19    40    1
    37    20    41    1
    38    20    42    1
    39    21    22    1
    40    21    27   ar
    41    22    26    1
    42    22    23    2
    43    23    24    1
    44    24    25    1
    45    24    43    1
    46    25    26    2
@<TRIPOS>SUBSTRUCTURE
     1 ZINC001579482641        1 TEMP              0 ****  ****    0 ROOT


##########                                Name:    ZINC000654672208
##########                DOCK_Rotatable_Bonds:                   5
##########                         Heavy_Atoms:                  25
##########                    Molecular_Weight:             365.497
##########                DOCK_Rotatable_Bonds:                   5
##########                       Formal_Charge:           0.0100001
##########                     HBond_Acceptors:                   7
##########                        HBond_Donors:                   1
##########                         Heavy_Atoms:                  25
##########                          Grid_Score:          -31.730160
##########                     Grid_vdw_energy:          -28.807987
##########                      Grid_es_energy:           -2.922172
##########           Internal_energy_repulsive:           15.244742

@<TRIPOS>MOLECULE
ZINC000654672208
 52 54 1 0 0
SMALL
USER_CHARGES


@<TRIPOS>ATOM
      1 C1         -8.4224    0.3501   61.9258 C.3     1  ZINC000654672208   -0.1100
      2 C2         -8.1867    0.8418   60.5210 C.ar    1  ZINC000654672208   -0.1300
      3 C3         -7.4231    0.1010   59.6391 C.ar    1  ZINC000654672208    0.1000
      4 N4         -7.2129    0.5247   58.4080 N.ar    1  ZINC000654672208   -0.4700
      5 C5         -7.7172    1.6617   57.9705 C.ar    1  ZINC000654672208    0.1200
      6 C6         -7.4468    2.1003   56.5543 C.3     1  ZINC000654672208   -0.0900
      7 C7         -6.1983    2.9842   56.5237 C.3     1  ZINC000654672208    0.1500
      8 N8         -5.8390    3.2739   55.1333 N.am    1  ZINC000654672208   -0.7500
      9 C9         -6.4871    4.2435   54.4579 C.2     1  ZINC000654672208    0.7100
     10 O10        -7.3700    4.8778   55.0024 O.2     1  ZINC000654672208   -0.5800
     11 N11        -6.1565    4.5101   53.1788 N.am    1  ZINC000654672208   -0.6300
     12 C12        -6.8542    5.5642   52.4300 C.3     1  ZINC000654672208    0.1300
     13 C13        -7.3886    4.9683   51.1239 C.3     1  ZINC000654672208   -0.1400
     14 C14        -6.2383    4.3109   50.3588 C.3     1  ZINC000654672208   -0.1100
     15 C15        -5.6490    3.1725   51.2002 C.3     1  ZINC000654672208   -0.0600
     16 C16        -4.5075    2.5112   50.4210 C.3     1  ZINC000654672208   -0.1200
     17 C17        -4.4134    1.0227   50.8440 C.3     1  ZINC000654672208   -0.5800
     18 S18        -6.1907    0.5568   50.9027 S.o2    1  ZINC000654672208    2.3800
     19 O19        -6.6768    0.3626   49.5817 O.2     1  ZINC000654672208   -0.9300
     20 O20        -6.3884   -0.4468   51.8890 O.2     1  ZINC000654672208   -0.9300
     21 C21        -6.7693    2.1742   51.5393 C.3     1  ZINC000654672208   -0.5800
     22 C22        -5.0881    3.7562   52.5099 C.3     1  ZINC000654672208    0.1200
     23 C23        -8.4914    2.4557   58.7955 C.ar    1  ZINC000654672208   -0.1200
     24 C24        -9.0644    3.7536   58.2871 C.3     1  ZINC000654672208   -0.1200
     25 C25        -8.7382    2.0407   60.0950 C.ar    1  ZINC000654672208   -0.0800
     26 H26        -9.3202   -0.2676   61.9488 H       1  ZINC000654672208    0.0700
     27 H27        -7.5664   -0.2407   62.2523 H       1  ZINC000654672208    0.0700
     28 H28        -8.5508    1.2028   62.5925 H       1  ZINC000654672208    0.0700
     29 H29        -6.9931   -0.8356   59.9621 H       1  ZINC000654672208    0.1600
     30 H30        -7.2866    1.2234   55.9267 H       1  ZINC000654672208    0.0900
     31 H31        -8.3006    2.6644   56.1792 H       1  ZINC000654672208    0.0900
     32 H32        -6.4011    3.9176   57.0487 H       1  ZINC000654672208    0.0700
     33 H33        -5.3734    2.4648   57.0115 H       1  ZINC000654672208    0.0700
     34 H34        -5.1347    2.7678   54.6989 H       1  ZINC000654672208    0.3900
     35 H35        -7.6843    5.9462   53.0242 H       1  ZINC000654672208    0.1000
     36 H36        -6.1597    6.3737   52.2052 H       1  ZINC000654672208    0.0700
     37 H37        -8.1494    4.2210   51.3495 H       1  ZINC000654672208    0.0700
     38 H38        -7.8252    5.7599   50.5147 H       1  ZINC000654672208    0.0800
     39 H39        -6.6108    3.9106   49.4160 H       1  ZINC000654672208    0.0800
     40 H40        -5.4648    5.0523   50.1583 H       1  ZINC000654672208    0.0800
     41 H41        -4.7079    2.5763   49.3515 H       1  ZINC000654672208    0.1000
     42 H42        -3.5685    3.0166   50.6471 H       1  ZINC000654672208    0.1000
     43 H43        -3.8786    0.4358   50.0972 H       1  ZINC000654672208    0.1400
     44 H44        -3.9491    0.9224   51.8250 H       1  ZINC000654672208    0.1400
     45 H45        -6.9163    2.1243   52.6181 H       1  ZINC000654672208    0.1400
     46 H46        -7.6960    2.4647   51.0445 H       1  ZINC000654672208    0.1400
     47 H47        -4.2510    4.4175   52.2863 H       1  ZINC000654672208    0.0800
     48 H48        -4.7537    2.9459   53.1576 H       1  ZINC000654672208    0.0800
     49 H49       -10.0461    3.5708   57.8500 H       1  ZINC000654672208    0.0800
     50 H50        -9.1602    4.4571   59.1141 H       1  ZINC000654672208    0.0700
     51 H51        -8.4013    4.1714   57.5296 H       1  ZINC000654672208    0.0700
     52 H52        -9.3396    2.6406   60.7621 H       1  ZINC000654672208    0.1300
@<TRIPOS>BOND
     1     1     2    1
     2     1    26    1
     3     1    27    1
     4     1    28    1
     5     2    25   ar
     6     2     3   ar
     7     3     4   ar
     8     3    29    1
     9     4     5   ar
    10     5     6    1
    11     5    23   ar
    12     6     7    1
    13     6    30    1
    14     6    31    1
    15     7     8    1
    16     7    32    1
    17     7    33    1
    18     8     9   am
    19     8    34    1
    20     9    10    2
    21     9    11   am
    22    11    22    1
    23    11    12    1
    24    12    13    1
    25    12    35    1
    26    12    36    1
    27    13    14    1
    28    13    37    1
    29    13    38    1
    30    14    15    1
    31    14    39    1
    32    14    40    1
    33    15    21    1
    34    15    16    1
    35    15    22    1
    36    16    17    1
    37    16    41    1
    38    16    42    1
    39    17    18    1
    40    17    43    1
    41    17    44    1
    42    18    19    2
    43    18    20    2
    44    18    21    1
    45    21    45    1
    46    21    46    1
    47    22    47    1
    48    22    48    1
    49    23    24    1
    50    23    25   ar
    51    24    49    1
    52    24    50    1
    53    24    51    1
    54    25    52    1
@<TRIPOS>SUBSTRUCTURE
     1 ZINC000654672208        1 TEMP              0 ****  ****    0 ROOT


##########                                Name:    ZINC000851838607
##########                DOCK_Rotatable_Bonds:                  12
##########                         Heavy_Atoms:                  23
##########                    Molecular_Weight:             352.495
##########                DOCK_Rotatable_Bonds:                  12
##########                       Formal_Charge:          0.00999896
##########                     HBond_Acceptors:                   8
##########                        HBond_Donors:                   2
##########                         Heavy_Atoms:                  23
##########                          Grid_Score:          -31.721909
##########                     Grid_vdw_energy:          -29.624495
##########                      Grid_es_energy:           -2.097415
##########           Internal_energy_repulsive:           23.199968

@<TRIPOS>MOLECULE
ZINC000851838607
 55 54 1 0 0
SMALL
USER_CHARGES


@<TRIPOS>ATOM
      1 C1          1.9367   -1.8156   50.3309 C.3     1  ZINC000851838607    0.0300
      2 O2          3.0742   -1.1289   49.8048 O.3     1  ZINC000851838607   -0.3800
      3 C3          2.7499   -0.0992   48.8685 C.3     1  ZINC000851838607    0.0800
      4 C4          2.0417    1.0461   49.5949 C.3     1  ZINC000851838607   -0.6000
      5 H5          1.0989    0.6868   50.0075 H       1  ZINC000851838607    0.1400
      6 C6          2.9320    1.5588   50.7288 C.3     1  ZINC000851838607   -0.1400
      7 S7          1.7155    2.3939   48.4255 S.o2    1  ZINC000851838607    2.6200
      8 O8          2.8803    3.1866   48.2409 O.2     1  ZINC000851838607   -0.9400
      9 O9          0.9684    1.9196   47.3138 O.2     1  ZINC000851838607   -0.9500
     10 N10         0.6653    3.3918   49.2278 N.am    1  ZINC000851838607   -1.1200
     11 C11        -0.6343    2.8822   49.6723 C.3     1  ZINC000851838607    0.1100
     12 C12        -0.7370    3.0052   51.1939 C.3     1  ZINC000851838607   -0.1400
     13 C13        -2.0922    3.6097   51.5665 C.3     1  ZINC000851838607    0.1700
     14 H14        -2.4708    4.1964   50.7295 H       1  ZINC000851838607    0.1000
     15 N15        -3.0378    2.5345   51.8765 N.am    1  ZINC000851838607   -0.7100
     16 C16        -3.8364    2.0401   50.9099 C.2     1  ZINC000851838607    0.6500
     17 O17        -3.7733    2.4871   49.7817 O.2     1  ZINC000851838607   -0.5600
     18 O18        -4.7043    1.0509   51.1944 O.3     1  ZINC000851838607   -0.3700
     19 C19        -6.0894    1.4304   51.4082 C.3     1  ZINC000851838607    0.1400
     20 C20        -6.1491    2.6298   52.3563 C.3     1  ZINC000851838607   -0.1800
     21 C21        -6.7277    1.8062   50.0695 C.3     1  ZINC000851838607   -0.1400
     22 C22        -6.8510    0.2551   52.0242 C.3     1  ZINC000851838607   -0.1800
     23 C23        -1.9285    4.5134   52.7901 C.3     1  ZINC000851838607   -0.1100
     24 C24        -1.3732    5.8700   52.3516 C.3     1  ZINC000851838607   -0.1500
     25 C25        -3.2882    4.7122   53.4629 C.3     1  ZINC000851838607   -0.1400
     26 H26         1.2894   -1.1052   50.8453 H       1  ZINC000851838607    0.0400
     27 H27         1.3859   -2.2842   49.5153 H       1  ZINC000851838607    0.0500
     28 H28         2.2670   -2.5808   51.0333 H       1  ZINC000851838607    0.0900
     29 H29         3.6644    0.2734   48.4072 H       1  ZINC000851838607    0.0700
     30 H30         2.0925   -0.5025   48.0982 H       1  ZINC000851838607    0.0600
     31 H31         2.4688    2.4322   51.1878 H       1  ZINC000851838607    0.0700
     32 H32         3.0534    0.7761   51.4775 H       1  ZINC000851838607    0.0900
     33 H33         3.9080    1.8333   50.3285 H       1  ZINC000851838607    0.0700
     34 H34         0.9106    4.3137   49.4034 H       1  ZINC000851838607    0.4200
     35 H35        -1.4307    3.4624   49.2063 H       1  ZINC000851838607    0.0700
     36 H36        -0.7317    1.8353   49.3850 H       1  ZINC000851838607    0.0800
     37 H37        -0.6432    2.0176   51.6453 H       1  ZINC000851838607    0.0800
     38 H38         0.0617    3.6498   51.5611 H       1  ZINC000851838607    0.1000
     39 H39        -3.0891    2.1784   52.7772 H       1  ZINC000851838607    0.4100
     40 H40        -5.6066    3.4672   51.9174 H       1  ZINC000851838607    0.0600
     41 H41        -7.1889    2.9146   52.5167 H       1  ZINC000851838607    0.0700
     42 H42        -5.6944    2.3620   53.3100 H       1  ZINC000851838607    0.0900
     43 H43        -6.6852    0.9518   49.3940 H       1  ZINC000851838607    0.0700
     44 H44        -7.7675    2.0912   50.2299 H       1  ZINC000851838607    0.0800
     45 H45        -6.1852    2.6436   49.6307 H       1  ZINC000851838607    0.0700
     46 H46        -6.3963   -0.0128   52.9779 H       1  ZINC000851838607    0.0900
     47 H47        -7.8909    0.5399   52.1847 H       1  ZINC000851838607    0.0700
     48 H48        -6.8085   -0.5995   51.3487 H       1  ZINC000851838607    0.0600
     49 H49        -1.2388    4.0491   53.4950 H       1  ZINC000851838607    0.0700
     50 H50        -2.0629    6.3342   51.6467 H       1  ZINC000851838607    0.0600
     51 H51        -1.2566    6.5138   53.2234 H       1  ZINC000851838607    0.0600
     52 H52        -0.4045    5.7283   51.8724 H       1  ZINC000851838607    0.0600
     53 H53        -3.6838    3.7458   53.7752 H       1  ZINC000851838607    0.0500
     54 H54        -3.1716    5.3560   54.3345 H       1  ZINC000851838607    0.0500
     55 H55        -3.9779    5.1765   52.7579 H       1  ZINC000851838607    0.0700
@<TRIPOS>BOND
     1     1     2    1
     2     1    26    1
     3     1    27    1
     4     1    28    1
     5     2     3    1
     6     3     4    1
     7     3    29    1
     8     3    30    1
     9     4     5    1
    10     4     6    1
    11     4     7    1
    12     6    31    1
    13     6    32    1
    14     6    33    1
    15     7     8    2
    16     7     9    2
    17     7    10   am
    18    10    11    1
    19    10    34    1
    20    11    12    1
    21    11    35    1
    22    11    36    1
    23    12    13    1
    24    12    37    1
    25    12    38    1
    26    13    14    1
    27    13    15    1
    28    13    23    1
    29    15    16   am
    30    15    39    1
    31    16    17    2
    32    16    18    1
    33    18    19    1
    34    19    20    1
    35    19    21    1
    36    19    22    1
    37    20    40    1
    38    20    41    1
    39    20    42    1
    40    21    43    1
    41    21    44    1
    42    21    45    1
    43    22    46    1
    44    22    47    1
    45    22    48    1
    46    23    24    1
    47    23    25    1
    48    23    49    1
    49    24    50    1
    50    24    51    1
    51    24    52    1
    52    25    53    1
    53    25    54    1
    54    25    55    1
@<TRIPOS>SUBSTRUCTURE
     1 ZINC000851838607        1 TEMP              0 ****  ****    0 ROOT


##########                                Name:    ZINC000015179664
##########                DOCK_Rotatable_Bonds:                   8
##########                         Heavy_Atoms:                  25
##########                    Molecular_Weight:             361.422
##########                DOCK_Rotatable_Bonds:                   8
##########                       Formal_Charge:        -2.23517e-07
##########                     HBond_Acceptors:                   8
##########                        HBond_Donors:                   1
##########                         Heavy_Atoms:                  25
##########                          Grid_Score:          -31.709045
##########                     Grid_vdw_energy:          -31.777647
##########                      Grid_es_energy:            0.068601
##########           Internal_energy_repulsive:           24.813118

@<TRIPOS>MOLECULE
ZINC000015179664
 44 45 1 0 0
SMALL
USER_CHARGES


@<TRIPOS>ATOM
      1 C1         -6.2390   -0.1200   50.8430 C.3     1  ZINC000015179664   -0.1600
      2 C2         -6.2382    1.3219   50.3311 C.3     1  ZINC000015179664    0.1800
      3 H3         -6.5428    1.3362   49.2847 H       1  ZINC000015179664    0.1200
      4 C4         -4.8522    1.8996   50.4589 C.ar    1  ZINC000015179664   -0.1000
      5 C5         -4.4326    2.4288   51.6648 C.ar    1  ZINC000015179664   -0.0700
      6 C6         -3.1609    2.9587   51.7820 C.ar    1  ZINC000015179664   -0.1200
      7 C7         -2.3093    2.9589   50.6933 C.ar    1  ZINC000015179664   -0.0500
      8 C8         -2.7287    2.4286   49.4874 C.ar    1  ZINC000015179664   -0.0400
      9 N9         -1.8168    2.4292   48.3214 N.pl3   1  ZINC000015179664    0.0300
     10 O10        -0.6969    2.8967   48.4245 O.2     1  ZINC000015179664   -0.1600
     11 O11        -2.1865    1.9620   47.2591 O.2     1  ZINC000015179664   -0.1500
     12 C12        -3.9985    1.8949   49.3714 C.ar    1  ZINC000015179664   -0.0400
     13 N13        -7.1756    2.1218   51.1236 N.am    1  ZINC000015179664   -0.6100
     14 C14        -7.7633    1.5652   52.3447 C.3     1  ZINC000015179664    0.0600
     15 C15        -7.4971    3.3698   50.7292 C.2     1  ZINC000015179664    0.5200
     16 O16        -8.2742    4.0315   51.3845 O.2     1  ZINC000015179664   -0.5200
     17 C17        -6.8912    3.9432   49.4742 C.3     1  ZINC000015179664   -0.1500
     18 C18        -7.5464    5.2897   49.1605 C.3     1  ZINC000015179664    0.1300
     19 N19        -8.9734    5.0889   48.8972 N.am    1  ZINC000015179664   -0.7300
     20 C20        -9.5927    5.8178   47.9477 C.2     1  ZINC000015179664    0.5800
     21 O21        -8.9670    6.6435   47.3103 O.2     1  ZINC000015179664   -0.5300
     22 C22       -11.0261    5.6147   47.6820 C.2     1  ZINC000015179664   -0.1500
     23 C23       -11.7796    6.4694   46.9394 C.2     1  ZINC000015179664   -0.2200
     24 S24       -13.3915    5.9247   46.8384 S.3     1  ZINC000015179664    0.1900
     25 C25       -13.0535    4.5086   47.8187 C.2     1  ZINC000015179664   -0.2300
     26 C26       -11.7756    4.4840   48.1780 C.2     1  ZINC000015179664   -0.0900
     27 H27        -5.5416   -0.7151   50.2534 H       1  ZINC000015179664    0.0800
     28 H28        -5.9344   -0.1342   51.8894 H       1  ZINC000015179664    0.0600
     29 H29        -7.2415   -0.5378   50.7506 H       1  ZINC000015179664    0.0700
     30 H30        -5.0979    2.4287   52.5154 H       1  ZINC000015179664    0.1500
     31 H31        -2.8332    3.3729   52.7240 H       1  ZINC000015179664    0.1500
     32 H32        -1.3162    3.3734   50.7847 H       1  ZINC000015179664    0.1600
     33 H33        -4.3262    1.4807   48.4295 H       1  ZINC000015179664    0.1600
     34 H34        -7.1043    1.7660   53.1892 H       1  ZINC000015179664    0.0600
     35 H35        -8.7343    2.0269   52.5236 H       1  ZINC000015179664    0.0800
     36 H36        -7.8886    0.4885   52.2294 H       1  ZINC000015179664    0.0800
     37 H37        -5.8204    4.0854   49.6200 H       1  ZINC000015179664    0.1000
     38 H38        -7.0567    3.2563   48.6443 H       1  ZINC000015179664    0.1000
     39 H39        -7.4247    5.9600   50.0114 H       1  ZINC000015179664    0.0800
     40 H40        -7.0730    5.7282   48.2820 H       1  ZINC000015179664    0.0800
     41 H41        -9.4727    4.4311   49.4063 H       1  ZINC000015179664    0.4000
     42 H42       -11.4070    7.3713   46.4765 H       1  ZINC000015179664    0.1700
     43 H43       -13.7828    3.7593   48.0888 H       1  ZINC000015179664    0.1700
     44 H44       -11.3426    3.7029   48.7851 H       1  ZINC000015179664    0.1600
@<TRIPOS>BOND
     1     1     2    1
     2     1    27    1
     3     1    28    1
     4     1    29    1
     5     2     3    1
     6     2     4    1
     7     2    13    1
     8     4    12   ar
     9     4     5   ar
    10     5     6   ar
    11     5    30    1
    12     6     7   ar
    13     6    31    1
    14     7     8   ar
    15     7    32    1
    16     8     9    1
    17     8    12   ar
    18     9    10    2
    19     9    11    2
    20    12    33    1
    21    13    14    1
    22    13    15   am
    23    14    34    1
    24    14    35    1
    25    14    36    1
    26    15    16    2
    27    15    17    1
    28    17    18    1
    29    17    37    1
    30    17    38    1
    31    18    19    1
    32    18    39    1
    33    18    40    1
    34    19    20   am
    35    19    41    1
    36    20    21    2
    37    20    22    1
    38    22    26    1
    39    22    23    2
    40    23    24    1
    41    23    42    1
    42    24    25    1
    43    25    26    2
    44    25    43    1
    45    26    44    1
@<TRIPOS>SUBSTRUCTURE
     1 ZINC000015179664        1 TEMP              0 ****  ****    0 ROOT


##########                                Name:    ZINC000188380122
##########                DOCK_Rotatable_Bonds:                   6
##########                         Heavy_Atoms:                  27
##########                    Molecular_Weight:             396.433
##########                DOCK_Rotatable_Bonds:                   6
##########                       Formal_Charge:           0.0299998
##########                     HBond_Acceptors:                   8
##########                        HBond_Donors:                   1
##########                         Heavy_Atoms:                  27
##########                          Grid_Score:          -31.696440
##########                     Grid_vdw_energy:          -31.147678
##########                      Grid_es_energy:           -0.548761
##########           Internal_energy_repulsive:           10.525079

@<TRIPOS>MOLECULE
ZINC000188380122
 46 49 1 0 0
SMALL
USER_CHARGES


@<TRIPOS>ATOM
      1 O1         -7.5081   -0.5247   51.7759 O.2     1  ZINC000188380122   -0.5200
      2 C2         -7.9811    0.5882   51.8685 C.2     1  ZINC000188380122    0.5200
      3 C3         -9.1127    0.8485   52.8291 C.3     1  ZINC000188380122   -0.0700
      4 C4         -8.5608    1.0183   54.2212 C.2     1  ZINC000188380122    0.0900
      5 C5         -7.4339    1.6973   54.4605 C.2     1  ZINC000188380122   -0.2400
      6 S6         -7.1303    1.6669   56.1964 S.3     1  ZINC000188380122    0.1000
      7 C7         -8.5944    0.7152   56.4307 C.2     1  ZINC000188380122    0.1100
      8 C8         -9.1028    0.2291   57.7313 C.ar    1  ZINC000188380122   -0.0200
      9 C9         -8.4392    0.5638   58.9122 C.ar    1  ZINC000188380122   -0.0400
     10 C10        -8.9190    0.1073   60.1228 C.ar    1  ZINC000188380122   -0.1200
     11 C11       -10.0550   -0.6809   60.1672 C.ar    1  ZINC000188380122   -0.0600
     12 C12       -10.7176   -1.0163   58.9995 C.ar    1  ZINC000188380122   -0.1800
     13 C13       -11.9547   -1.8750   59.0574 C.3     1  ZINC000188380122    0.5100
     14 F14       -12.8000   -1.5476   57.9917 F       1  ZINC000188380122   -0.1700
     15 F15       -11.5914   -3.2230   58.9673 F       1  ZINC000188380122   -0.1700
     16 F16       -12.6212   -1.6515   60.2670 F       1  ZINC000188380122   -0.1700
     17 C17       -10.2515   -0.5617   57.7834 C.ar    1  ZINC000188380122   -0.0500
     18 N18        -9.1597    0.5134   55.2750 N.2     1  ZINC000188380122   -0.4300
     19 N19        -7.4910    1.5935   51.1163 N.am    1  ZINC000188380122   -0.7200
     20 C20        -6.3910    1.3405   50.1825 C.3     1  ZINC000188380122    0.1300
     21 H21        -6.6651    0.6552   49.3804 H       1  ZINC000188380122    0.1200
     22 C22        -5.0640    0.9815   50.8744 C.3     1  ZINC000188380122   -0.1800
     23 C23        -4.3815    1.8398   49.8028 C.3     1  ZINC000188380122    0.0900
     24 H24        -4.1740    1.2669   48.8990 H       1  ZINC000188380122    0.1200
     25 O25        -3.2487    2.5530   50.2311 O.3     1  ZINC000188380122   -0.3700
     26 C26        -3.4016    3.6152   51.1542 C.3     1  ZINC000188380122    0.0700
     27 C27        -4.5319    4.5503   50.7269 C.3     1  ZINC000188380122   -0.1600
     28 C28        -5.8394    3.7530   50.6921 C.3     1  ZINC000188380122   -0.1100
     29 C29        -5.6919    2.6232   49.6881 C.3     1  ZINC000188380122   -0.1500
     30 H30        -5.9543    2.9127   48.6705 H       1  ZINC000188380122    0.0900
     31 H31        -9.6387    1.7564   52.5336 H       1  ZINC000188380122    0.1100
     32 H32        -9.8043    0.0062   52.8127 H       1  ZINC000188380122    0.1100
     33 H33        -6.8162    2.1806   53.7180 H       1  ZINC000188380122    0.1800
     34 H34        -7.5518    1.1785   58.8789 H       1  ZINC000188380122    0.1500
     35 H35        -8.4065    0.3657   61.0376 H       1  ZINC000188380122    0.1400
     36 H36       -10.4261   -1.0362   61.1171 H       1  ZINC000188380122    0.1500
     37 H37       -10.7696   -0.8242   56.8729 H       1  ZINC000188380122    0.1400
     38 H38        -7.8668    2.4845   51.1933 H       1  ZINC000188380122    0.4000
     39 H39        -4.9724    1.3850   51.8829 H       1  ZINC000188380122    0.0900
     40 H40        -4.8110   -0.0770   50.8148 H       1  ZINC000188380122    0.0800
     41 H41        -3.6287    3.2050   52.1382 H       1  ZINC000188380122    0.0500
     42 H42        -2.4707    4.1797   51.2084 H       1  ZINC000188380122    0.1000
     43 H43        -4.6208    5.3677   51.4424 H       1  ZINC000188380122    0.0800
     44 H44        -4.3208    4.9502   49.7351 H       1  ZINC000188380122    0.0800
     45 H45        -6.0420    3.3401   51.6803 H       1  ZINC000188380122    0.0700
     46 H46        -6.6583    4.4068   50.3921 H       1  ZINC000188380122    0.0800
@<TRIPOS>BOND
     1     1     2    2
     2     2     3    1
     3     2    19   am
     4     3     4    1
     5     3    31    1
     6     3    32    1
     7     4    18    1
     8     4     5    2
     9     5     6    1
    10     5    33    1
    11     6     7    1
    12     7     8    1
    13     7    18    2
    14     8    17   ar
    15     8     9   ar
    16     9    10   ar
    17     9    34    1
    18    10    11   ar
    19    10    35    1
    20    11    12   ar
    21    11    36    1
    22    12    13    1
    23    12    17   ar
    24    13    14    1
    25    13    15    1
    26    13    16    1
    27    17    37    1
    28    19    20    1
    29    19    38    1
    30    20    21    1
    31    20    29    1
    32    20    22    1
    33    22    23    1
    34    22    39    1
    35    22    40    1
    36    23    24    1
    37    23    29    1
    38    23    25    1
    39    25    26    1
    40    26    27    1
    41    26    41    1
    42    26    42    1
    43    27    28    1
    44    27    43    1
    45    27    44    1
    46    28    29    1
    47    28    45    1
    48    28    46    1
    49    29    30    1
@<TRIPOS>SUBSTRUCTURE
     1 ZINC000188380122        1 TEMP              0 ****  ****    0 ROOT


##########                                Name:    ZINC001193456967
##########                DOCK_Rotatable_Bonds:                   3
##########                         Heavy_Atoms:                  27
##########                    Molecular_Weight:             392.451
##########                DOCK_Rotatable_Bonds:                   3
##########                       Formal_Charge:           0.0300002
##########                     HBond_Acceptors:                   8
##########                        HBond_Donors:                   0
##########                         Heavy_Atoms:                  27
##########                          Grid_Score:          -31.678547
##########                     Grid_vdw_energy:          -30.521200
##########                      Grid_es_energy:           -1.157346
##########           Internal_energy_repulsive:           37.150612

@<TRIPOS>MOLECULE
ZINC001193456967
 48 50 1 0 0
SMALL
USER_CHARGES


@<TRIPOS>ATOM
      1 C1          0.3570    2.5185   50.0501 C.3     1  ZINC001193456967   -0.1400
      2 C2         -1.1457    2.6300   50.0370 C.ar    1  ZINC001193456967    0.0300
      3 C3         -1.8267    2.9294   51.2019 C.ar    1  ZINC001193456967   -0.1400
      4 C4         -3.2055    3.0317   51.1898 C.ar    1  ZINC001193456967    0.0300
      5 C5         -3.9027    2.8351   50.0128 C.ar    1  ZINC001193456967   -0.6900
      6 S6         -5.6599    2.9649   49.9975 S.o2    1  ZINC001193456967    2.7100
      7 O7         -5.9729    4.2392   50.5425 O.2     1  ZINC001193456967   -0.9300
      8 O8         -6.0818    2.5467   48.7066 O.2     1  ZINC001193456967   -0.9400
      9 N9         -6.2437    1.8428   51.0664 N.am    1  ZINC001193456967   -1.0000
     10 C10        -6.0319    0.3862   50.9843 C.3     1  ZINC001193456967    0.1100
     11 C11        -7.2171   -0.2316   51.7675 C.3     1  ZINC001193456967   -0.1200
     12 C12        -7.3877    0.7850   52.9272 C.3     1  ZINC001193456967   -0.0500
     13 H13        -6.6841    0.5731   53.7323 H       1  ZINC001193456967    0.1000
     14 C14        -8.8038    0.7732   53.4425 C.ar    1  ZINC001193456967   -0.0800
     15 C15        -9.8564    0.5882   52.5655 C.ar    1  ZINC001193456967   -0.0800
     16 C16       -11.1554    0.5774   53.0369 C.ar    1  ZINC001193456967   -0.1500
     17 C17       -11.4025    0.7514   54.3880 C.ar    1  ZINC001193456967    0.1000
     18 F18       -12.6720    0.7405   54.8500 F       1  ZINC001193456967   -0.1400
     19 C19       -10.3475    0.9362   55.2654 C.ar    1  ZINC001193456967   -0.1500
     20 C20        -9.0490    0.9419   54.7925 C.ar    1  ZINC001193456967   -0.0800
     21 C21        -7.0535    2.1350   52.2582 C.3     1  ZINC001193456967    0.1900
     22 C22        -6.2646    3.0157   53.2291 C.3     1  ZINC001193456967   -0.1800
     23 C23        -8.3444    2.8425   51.8409 C.3     1  ZINC001193456967   -0.1800
     24 C24        -3.2215    2.5369   48.8472 C.ar    1  ZINC001193456967    0.0400
     25 C25        -1.8429    2.4384   48.8585 C.ar    1  ZINC001193456967   -0.0600
     26 N26        -1.1135    2.1192   47.6107 N.pl3   1  ZINC001193456967    0.0200
     27 O27        -0.0399    2.6466   47.3809 O.2     1  ZINC001193456967   -0.1400
     28 O28        -1.5869    1.3291   46.8137 O.2     1  ZINC001193456967   -0.1500
     29 H29         0.7947    3.4698   49.7477 H       1  ZINC001193456967    0.1100
     30 H30         0.6939    2.2670   51.0558 H       1  ZINC001193456967    0.0900
     31 H31         0.6695    1.7379   49.3564 H       1  ZINC001193456967    0.0800
     32 H32        -1.2818    3.0831   52.1216 H       1  ZINC001193456967    0.1600
     33 H33        -3.7376    3.2650   52.1002 H       1  ZINC001193456967    0.1600
     34 H34        -6.0519    0.0580   49.9450 H       1  ZINC001193456967    0.0900
     35 H35        -5.0854    0.1134   51.4510 H       1  ZINC001193456967    0.0700
     36 H36        -8.1142   -0.2737   51.1498 H       1  ZINC001193456967    0.0900
     37 H37        -6.9605   -1.2200   52.1489 H       1  ZINC001193456967    0.0900
     38 H38        -9.6634    0.4525   51.5116 H       1  ZINC001193456967    0.1400
     39 H39       -11.9776    0.4334   52.3515 H       1  ZINC001193456967    0.1400
     40 H40       -10.5391    1.0724   56.3196 H       1  ZINC001193456967    0.1400
     41 H41        -8.2259    1.0857   55.4767 H       1  ZINC001193456967    0.1300
     42 H42        -5.3381    2.5123   53.5054 H       1  ZINC001193456967    0.0700
     43 H43        -6.0323    3.9669   52.7501 H       1  ZINC001193456967    0.0600
     44 H44        -6.8612    3.1954   54.1234 H       1  ZINC001193456967    0.0800
     45 H45        -9.0085    2.9242   52.7014 H       1  ZINC001193456967    0.0800
     46 H46        -8.1083    3.8392   51.4683 H       1  ZINC001193456967    0.0900
     47 H47        -8.8360    2.2681   51.0557 H       1  ZINC001193456967    0.0700
     48 H48        -3.7663    2.3836   47.9275 H       1  ZINC001193456967    0.1600
@<TRIPOS>BOND
     1     1     2    1
     2     1    29    1
     3     1    30    1
     4     1    31    1
     5     2    25   ar
     6     2     3   ar
     7     3     4   ar
     8     3    32    1
     9     4     5   ar
    10     4    33    1
    11     5     6    1
    12     5    24   ar
    13     6     7    2
    14     6     8    2
    15     6     9   am
    16     9    21    1
    17     9    10    1
    18    10    11    1
    19    10    34    1
    20    10    35    1
    21    11    12    1
    22    11    36    1
    23    11    37    1
    24    12    13    1
    25    12    14    1
    26    12    21    1
    27    14    20   ar
    28    14    15   ar
    29    15    16   ar
    30    15    38    1
    31    16    17   ar
    32    16    39    1
    33    17    18    1
    34    17    19   ar
    35    19    20   ar
    36    19    40    1
    37    20    41    1
    38    21    22    1
    39    21    23    1
    40    22    42    1
    41    22    43    1
    42    22    44    1
    43    23    45    1
    44    23    46    1
    45    23    47    1
    46    24    25   ar
    47    24    48    1
    48    25    26    1
    49    26    27    2
    50    26    28    2
@<TRIPOS>SUBSTRUCTURE
     1 ZINC001193456967        1 TEMP              0 ****  ****    0 ROOT


##########                                Name:    ZINC001139743874
##########                DOCK_Rotatable_Bonds:                   5
##########                         Heavy_Atoms:                  28
##########                    Molecular_Weight:             382.506
##########                DOCK_Rotatable_Bonds:                   5
##########                       Formal_Charge:           0.0199992
##########                     HBond_Acceptors:                   6
##########                        HBond_Donors:                   0
##########                         Heavy_Atoms:                  28
##########                          Grid_Score:          -31.664238
##########                     Grid_vdw_energy:          -30.939280
##########                      Grid_es_energy:           -0.724958
##########           Internal_energy_repulsive:           24.323158

@<TRIPOS>MOLECULE
ZINC001139743874
 58 61 1 0 0
SMALL
USER_CHARGES


@<TRIPOS>ATOM
      1 C1        -10.9366    0.7694   53.5368 C.3     1  ZINC001139743874   -0.1800
      2 C2         -9.8267    1.8216   53.4925 C.3     1  ZINC001139743874    0.1400
      3 C3        -10.3885    3.1744   53.9345 C.3     1  ZINC001139743874   -0.1800
      4 C4         -8.6938    1.4077   54.4338 C.3     1  ZINC001139743874   -0.1400
      5 O5         -9.3155    1.9292   52.1378 O.3     1  ZINC001139743874   -0.3600
      6 C6         -8.5590    0.9107   51.6872 C.2     1  ZINC001139743874    0.6500
      7 O7         -8.7668   -0.2204   52.0799 O.2     1  ZINC001139743874   -0.5700
      8 N8         -7.5714    1.1455   50.8008 N.am    1  ZINC001139743874   -0.5900
      9 C9         -6.7592    0.0766   50.3123 C.3     1  ZINC001139743874    0.1000
     10 C10        -5.5284   -0.2915   51.1889 C.3     1  ZINC001139743874   -0.1300
     11 C11        -4.8738    1.0128   51.7294 C.3     1  ZINC001139743874   -0.0900
     12 C12        -4.8843    2.1035   50.7093 C.3     1  ZINC001139743874   -0.0800
     13 C13        -3.5625    2.8584   50.5247 C.3     1  ZINC001139743874    0.0100
     14 N14        -3.2868    1.8955   49.4339 N.3     1  ZINC001139743874   -0.4700
     15 C15        -2.7140    2.5751   48.2643 C.3     1  ZINC001139743874    0.0600
     16 C16        -1.2802    2.1465   48.0867 C.ar    1  ZINC001139743874   -0.1200
     17 C17        -0.8611    1.6005   46.8750 C.ar    1  ZINC001139743874    0.1500
     18 N18         0.3783    1.2172   46.6857 N.ar    1  ZINC001139743874   -0.4600
     19 C19         1.2953    1.3345   47.6489 C.ar    1  ZINC001139743874    0.0800
     20 C20         2.6269    0.9220   47.4421 C.ar    1  ZINC001139743874   -0.0400
     21 C21         3.5153    1.0695   48.4678 C.ar    1  ZINC001139743874   -0.1600
     22 C22         3.0962    1.6155   49.6800 C.ar    1  ZINC001139743874    0.1300
     23 N23         1.8568    1.9983   49.8695 N.ar    1  ZINC001139743874   -0.4700
     24 C24         0.9397    1.8812   48.9060 C.ar    1  ZINC001139743874    0.0800
     25 C25        -0.3903    2.2985   49.1110 C.ar    1  ZINC001139743874   -0.0400
     26 C26        -4.7366    1.6550   49.2507 C.3     1  ZINC001139743874    0.0000
     27 C27        -6.0862    3.0218   50.9511 C.3     1  ZINC001139743874   -0.1300
     28 C28        -7.3050    2.5314   50.3012 C.3     1  ZINC001139743874    0.1400
     29 H29       -11.7438    1.0642   52.8663 H       1  ZINC001139743874    0.0900
     30 H30       -10.5363   -0.1943   53.2220 H       1  ZINC001139743874    0.0600
     31 H31       -11.3203    0.6886   54.5539 H       1  ZINC001139743874    0.0700
     32 H32       -10.7722    3.0936   54.9516 H       1  ZINC001139743874    0.0700
     33 H33        -9.5978    3.9240   53.9031 H       1  ZINC001139743874    0.0600
     34 H34       -11.1957    3.4692   53.2640 H       1  ZINC001139743874    0.0900
     35 H35        -8.2935    0.4440   54.1189 H       1  ZINC001139743874    0.0700
     36 H36        -7.9031    2.1573   54.4022 H       1  ZINC001139743874    0.0700
     37 H37        -9.0775    1.3270   55.4508 H       1  ZINC001139743874    0.0800
     38 H38        -7.3855   -0.8102   50.2143 H       1  ZINC001139743874    0.0700
     39 H39        -6.4016    0.3467   49.3187 H       1  ZINC001139743874    0.0900
     40 H40        -5.8501   -0.9111   52.0260 H       1  ZINC001139743874    0.0700
     41 H41        -4.8039   -0.8398   50.5869 H       1  ZINC001139743874    0.0800
     42 H42        -5.4216    1.3459   52.6109 H       1  ZINC001139743874    0.0600
     43 H43        -3.8427    0.8015   52.0127 H       1  ZINC001139743874    0.0700
     44 H44        -3.6868    3.8860   50.1835 H       1  ZINC001139743874    0.0700
     45 H45        -2.8830    2.7691   51.3724 H       1  ZINC001139743874    0.0900
     46 H46        -3.2851    2.3104   47.3745 H       1  ZINC001139743874    0.0600
     47 H47        -2.7548    3.6539   48.4148 H       1  ZINC001139743874    0.0900
     48 H48        -1.5751    1.4902   46.0722 H       1  ZINC001139743874    0.1700
     49 H49         2.9363    0.5001   46.4972 H       1  ZINC001139743874    0.1500
     50 H50         4.5430    0.7629   48.3405 H       1  ZINC001139743874    0.1500
     51 H51         3.8100    1.7255   50.4830 H       1  ZINC001139743874    0.1700
     52 H52        -0.6987    2.7236   50.0547 H       1  ZINC001139743874    0.1400
     53 H53        -4.9912    0.6083   49.0845 H       1  ZINC001139743874    0.1000
     54 H54        -5.2069    2.3280   48.5339 H       1  ZINC001139743874    0.0700
     55 H55        -6.2624    3.0971   52.0241 H       1  ZINC001139743874    0.0700
     56 H56        -5.8558    4.0140   50.5629 H       1  ZINC001139743874    0.0800
     57 H57        -7.1644    2.5165   49.2204 H       1  ZINC001139743874    0.0800
     58 H58        -8.1429    3.1811   50.5541 H       1  ZINC001139743874    0.1000
@<TRIPOS>BOND
     1     1     2    1
     2     1    29    1
     3     1    30    1
     4     1    31    1
     5     2     3    1
     6     2     4    1
     7     2     5    1
     8     3    32    1
     9     3    33    1
    10     3    34    1
    11     4    35    1
    12     4    36    1
    13     4    37    1
    14     5     6    1
    15     6     7    2
    16     6     8   am
    17     8    28    1
    18     8     9    1
    19     9    10    1
    20     9    38    1
    21     9    39    1
    22    10    11    1
    23    10    40    1
    24    10    41    1
    25    11    12    1
    26    11    42    1
    27    11    43    1
    28    12    26    1
    29    12    13    1
    30    12    27    1
    31    13    14    1
    32    13    44    1
    33    13    45    1
    34    14    15    1
    35    14    26    1
    36    15    16    1
    37    15    46    1
    38    15    47    1
    39    16    25   ar
    40    16    17   ar
    41    17    18   ar
    42    17    48    1
    43    18    19   ar
    44    19    24   ar
    45    19    20   ar
    46    20    21   ar
    47    20    49    1
    48    21    22   ar
    49    21    50    1
    50    22    23   ar
    51    22    51    1
    52    23    24   ar
    53    24    25   ar
    54    25    52    1
    55    26    53    1
    56    26    54    1
    57    27    28    1
    58    27    55    1
    59    27    56    1
    60    28    57    1
    61    28    58    1
@<TRIPOS>SUBSTRUCTURE
     1 ZINC001139743874        1 TEMP              0 ****  ****    0 ROOT


##########                                Name:    ZINC000654382142
##########                DOCK_Rotatable_Bonds:                  14
##########                         Heavy_Atoms:                  24
##########                    Molecular_Weight:             379.401
##########                DOCK_Rotatable_Bonds:                  14
##########                       Formal_Charge:          0.00999933
##########                     HBond_Acceptors:                  12
##########                        HBond_Donors:                   2
##########                         Heavy_Atoms:                  24
##########                          Grid_Score:          -31.660500
##########                     Grid_vdw_energy:          -30.649046
##########                      Grid_es_energy:           -1.011453
##########           Internal_energy_repulsive:           13.004631

@<TRIPOS>MOLECULE
ZINC000654382142
 48 47 1 0 0
SMALL
USER_CHARGES


@<TRIPOS>ATOM
      1 C1         -7.5004    0.7059   58.6955 C.3     1  ZINC000654382142    0.0300
      2 O2         -8.5920    0.7168   57.7733 O.3     1  ZINC000654382142   -0.3700
      3 C3         -8.3518    1.4928   56.5976 C.3     1  ZINC000654382142    0.0400
      4 C4         -9.5796    1.4321   55.6868 C.3     1  ZINC000654382142    0.1400
      5 N5         -9.8004    0.0493   55.2562 N.am    1  ZINC000654382142   -0.6100
      6 C6        -10.6965   -0.8217   56.0206 C.3     1  ZINC000654382142    0.0800
      7 C7        -12.0806   -0.8279   55.3684 C.3     1  ZINC000654382142    0.0500
      8 H8        -11.9859   -1.1022   54.3178 H       1  ZINC000654382142    0.1400
      9 O9        -12.6610    0.4740   55.4705 O.3     1  ZINC000654382142   -0.5200
     10 C10       -12.9760   -1.8429   56.0819 C.3     1  ZINC000654382142    0.4200
     11 F11       -13.1027   -1.4872   57.4290 F       1  ZINC000654382142   -0.1800
     12 F12       -14.2395   -1.8531   55.4814 F       1  ZINC000654382142   -0.1700
     13 F13       -12.4045   -3.1163   55.9876 F       1  ZINC000654382142   -0.1800
     14 C14        -9.1790   -0.4214   54.1568 C.2     1  ZINC000654382142    0.7100
     15 O15        -9.3634   -1.5687   53.7986 O.2     1  ZINC000654382142   -0.5600
     16 N16        -8.3533    0.3794   53.4545 N.am    1  ZINC000654382142   -0.7500
     17 C17        -7.6764   -0.1329   52.2604 C.3     1  ZINC000654382142    0.1400
     18 C18        -6.3382    0.5875   52.0842 C.3     1  ZINC000654382142   -0.1600
     19 C19        -5.8348    0.3854   50.6536 C.3     1  ZINC000654382142    0.1200
     20 N20        -5.6588    1.6892   50.0091 N.am    1  ZINC000654382142   -1.0000
     21 C21        -6.8303    2.4740   49.6117 C.3     1  ZINC000654382142    0.0900
     22 S22        -4.1357    2.2760   49.7298 S.o2    1  ZINC000654382142    2.6100
     23 C23        -3.3849    2.3887   51.3773 C.3     1  ZINC000654382142   -0.6800
     24 O24        -3.5041    1.2603   48.9625 O.2     1  ZINC000654382142   -0.9500
     25 O25        -4.3529    3.5728   49.1912 O.2     1  ZINC000654382142   -0.9500
     26 H26        -7.7614    0.0957   59.5602 H       1  ZINC000654382142    0.0900
     27 H27        -6.6183    0.2889   58.2096 H       1  ZINC000654382142    0.0400
     28 H28        -7.2889    1.7247   59.0202 H       1  ZINC000654382142    0.0400
     29 H29        -8.1589    2.5281   56.8787 H       1  ZINC000654382142    0.0500
     30 H30        -7.4868    1.0928   56.0686 H       1  ZINC000654382142    0.0600
     31 H31       -10.4543    1.7868   56.2320 H       1  ZINC000654382142    0.0900
     32 H32        -9.4155    2.0630   54.8132 H       1  ZINC000654382142    0.1000
     33 H33       -10.2956   -1.8353   56.0319 H       1  ZINC000654382142    0.1000
     34 H34       -10.7781   -0.4519   57.0427 H       1  ZINC000654382142    0.1000
     35 H35       -12.1502    1.1678   55.0316 H       1  ZINC000654382142    0.3900
     36 H36        -8.2072    1.2949   53.7395 H       1  ZINC000654382142    0.3900
     37 H37        -7.5011   -1.2028   52.3731 H       1  ZINC000654382142    0.0700
     38 H38        -8.3017    0.0426   51.3849 H       1  ZINC000654382142    0.0700
     39 H39        -6.4708    1.6523   52.2757 H       1  ZINC000654382142    0.0700
     40 H40        -5.6109    0.1798   52.7862 H       1  ZINC000654382142    0.0800
     41 H41        -4.8805   -0.1410   50.6751 H       1  ZINC000654382142    0.0900
     42 H42        -6.5613   -0.2023   50.0924 H       1  ZINC000654382142    0.1000
     43 H43        -7.1278    3.1247   50.4340 H       1  ZINC000654382142    0.0600
     44 H44        -6.5832    3.0798   48.7399 H       1  ZINC000654382142    0.0700
     45 H45        -7.6518    1.8011   49.3655 H       1  ZINC000654382142    0.0700
     46 H46        -3.3624    1.3995   51.8348 H       1  ZINC000654382142    0.1300
     47 H47        -2.3680    2.7708   51.2879 H       1  ZINC000654382142    0.1300
     48 H48        -3.9732    3.0633   51.9994 H       1  ZINC000654382142    0.1300
@<TRIPOS>BOND
     1     1     2    1
     2     1    26    1
     3     1    27    1
     4     1    28    1
     5     2     3    1
     6     3     4    1
     7     3    29    1
     8     3    30    1
     9     4     5    1
    10     4    31    1
    11     4    32    1
    12     5     6    1
    13     5    14   am
    14     6     7    1
    15     6    33    1
    16     6    34    1
    17     7     8    1
    18     7     9    1
    19     7    10    1
    20     9    35    1
    21    10    11    1
    22    10    12    1
    23    10    13    1
    24    14    15    2
    25    14    16   am
    26    16    17    1
    27    16    36    1
    28    17    18    1
    29    17    37    1
    30    17    38    1
    31    18    19    1
    32    18    39    1
    33    18    40    1
    34    19    20    1
    35    19    41    1
    36    19    42    1
    37    20    21    1
    38    20    22   am
    39    21    43    1
    40    21    44    1
    41    21    45    1
    42    22    23    1
    43    22    24    2
    44    22    25    2
    45    23    46    1
    46    23    47    1
    47    23    48    1
@<TRIPOS>SUBSTRUCTURE
     1 ZINC000654382142        1 TEMP              0 ****  ****    0 ROOT


##########                                Name:    ZINC000822206030
##########                DOCK_Rotatable_Bonds:                   7
##########                         Heavy_Atoms:                  29
##########                    Molecular_Weight:             391.448
##########                DOCK_Rotatable_Bonds:                   7
##########                       Formal_Charge:         -0.00999995
##########                     HBond_Acceptors:                   7
##########                        HBond_Donors:                   1
##########                         Heavy_Atoms:                  29
##########                          Grid_Score:          -31.653921
##########                     Grid_vdw_energy:          -31.398670
##########                      Grid_es_energy:           -0.255251
##########           Internal_energy_repulsive:           29.549488

@<TRIPOS>MOLECULE
ZINC000822206030
 51 55 1 0 0
SMALL
USER_CHARGES


@<TRIPOS>ATOM
      1 C1         -3.2643    1.9042   48.2309 C.3     1  ZINC000822206030   -0.1300
      2 C2         -2.8463    2.4828   49.5583 C.ar    1  ZINC000822206030   -0.0400
      3 C3         -1.5573    2.9454   49.7352 C.ar    1  ZINC000822206030   -0.1500
      4 C4         -1.1725    3.4766   50.9549 C.ar    1  ZINC000822206030    0.1100
      5 F5          0.0891    3.9283   51.1262 F       1  ZINC000822206030   -0.1400
      6 C6         -2.0793    3.5459   51.9990 C.ar    1  ZINC000822206030   -0.1500
      7 C7         -3.3697    3.0841   51.8261 C.ar    1  ZINC000822206030   -0.0800
      8 C8         -3.7588    2.5561   50.6026 C.ar    1  ZINC000822206030    0.1100
      9 N9         -5.0665    2.0879   50.4250 N.am    1  ZINC000822206030   -0.5600
     10 C10        -5.3669    0.6659   50.6098 C.3     1  ZINC000822206030    0.1500
     11 C11        -6.4514    0.5120   51.6447 C.ar    1  ZINC000822206030   -0.0900
     12 C12        -7.5508   -0.2838   51.3777 C.ar    1  ZINC000822206030   -0.1000
     13 C13        -8.5468   -0.4285   52.3222 C.ar    1  ZINC000822206030   -0.0800
     14 C14        -8.4434    0.2285   53.5462 C.ar    1  ZINC000822206030   -0.0100
     15 C15        -9.5114    0.0762   54.5661 C.2     1  ZINC000822206030    0.2200
     16 N16        -9.5198    0.5896   55.7800 N.2     1  ZINC000822206030   -0.2900
     17 N17       -10.6169    0.2303   56.3526 N.pl3   1  ZINC000822206030   -0.2300
     18 N18       -11.3039   -0.4943   55.5402 N.2     1  ZINC000822206030   -0.0500
     19 N19       -10.6575   -0.6055   54.4295 N.2     1  ZINC000822206030   -0.2700
     20 C20        -7.3342    1.0289   53.8099 C.ar    1  ZINC000822206030   -0.0800
     21 C21        -6.3414    1.1626   52.8604 C.ar    1  ZINC000822206030   -0.0900
     22 C22        -6.0489    2.9454   50.0841 C.2     1  ZINC000822206030    0.5500
     23 O23        -7.1813    2.5396   49.9288 O.2     1  ZINC000822206030   -0.5000
     24 C24        -5.7403    4.4083   49.8958 C.3     1  ZINC000822206030   -0.1900
     25 H25        -5.0274    4.6404   49.1045 H       1  ZINC000822206030    0.1200
     26 C26        -5.7230    5.2931   51.1439 C.3     1  ZINC000822206030   -0.1400
     27 C27        -6.8735    5.4066   50.1407 C.3     1  ZINC000822206030   -0.0900
     28 H28        -6.9062    6.2956   49.5108 H       1  ZINC000822206030    0.1100
     29 C29        -8.2335    4.8439   50.5586 C.3     1  ZINC000822206030   -0.1100
     30 C30        -9.3660    5.8426   50.8050 C.3     1  ZINC000822206030   -0.2000
     31 C31        -9.3838    4.9585   49.5564 C.3     1  ZINC000822206030   -0.1200
     32 H32        -3.6525    2.6992   47.5942 H       1  ZINC000822206030    0.0900
     33 H33        -2.4033    1.4407   47.7493 H       1  ZINC000822206030    0.0700
     34 H34        -4.0394    1.1544   48.3893 H       1  ZINC000822206030    0.0700
     35 H35        -0.8487    2.8926   48.9219 H       1  ZINC000822206030    0.1400
     36 H36        -1.7774    3.9608   52.9493 H       1  ZINC000822206030    0.1400
     37 H37        -4.0766    3.1380   52.6408 H       1  ZINC000822206030    0.1400
     38 H38        -5.7035    0.2399   49.6646 H       1  ZINC000822206030    0.1000
     39 H39        -4.4694    0.1454   50.9438 H       1  ZINC000822206030    0.0900
     40 H40        -7.6302   -0.7925   50.4283 H       1  ZINC000822206030    0.1300
     41 H41        -9.4049   -1.0499   52.1127 H       1  ZINC000822206030    0.1400
     42 H42       -10.8832    0.4683   57.2546 H       1  ZINC000822206030    0.4800
     43 H43        -7.2493    1.5408   54.7571 H       1  ZINC000822206030    0.1300
     44 H44        -5.4808    1.7827   53.0638 H       1  ZINC000822206030    0.1400
     45 H45        -5.9349    4.8169   52.1012 H       1  ZINC000822206030    0.1000
     46 H46        -4.9990    6.1074   51.1736 H       1  ZINC000822206030    0.1000
     47 H47        -8.2009    3.9542   51.1876 H       1  ZINC000822206030    0.1000
     48 H48       -10.0787    5.6103   51.5963 H       1  ZINC000822206030    0.0900
     49 H49        -9.1423    6.9007   50.6694 H       1  ZINC000822206030    0.0900
     50 H50        -9.1718    5.4351   48.5993 H       1  ZINC000822206030    0.0800
     51 H51       -10.1082    4.1447   49.5264 H       1  ZINC000822206030    0.0900
@<TRIPOS>BOND
     1     1     2    1
     2     1    32    1
     3     1    33    1
     4     1    34    1
     5     2     8   ar
     6     2     3   ar
     7     3     4   ar
     8     3    35    1
     9     4     5    1
    10     4     6   ar
    11     6     7   ar
    12     6    36    1
    13     7     8   ar
    14     7    37    1
    15     8     9    1
    16     9    10    1
    17     9    22   am
    18    10    11    1
    19    10    38    1
    20    10    39    1
    21    11    21   ar
    22    11    12   ar
    23    12    13   ar
    24    12    40    1
    25    13    14   ar
    26    13    41    1
    27    14    15    1
    28    14    20   ar
    29    15    19    1
    30    15    16    2
    31    16    17    1
    32    17    18    1
    33    17    42    1
    34    18    19    2
    35    20    21   ar
    36    20    43    1
    37    21    44    1
    38    22    23    2
    39    22    24    1
    40    24    25    1
    41    24    27    1
    42    24    26    1
    43    26    27    1
    44    26    45    1
    45    26    46    1
    46    27    28    1
    47    27    29    1
    48    29    31    1
    49    29    30    1
    50    29    47    1
    51    30    31    1
    52    30    48    1
    53    30    49    1
    54    31    50    1
    55    31    51    1
@<TRIPOS>SUBSTRUCTURE
     1 ZINC000822206030        1 TEMP              0 ****  ****    0 ROOT


##########                                Name:    ZINC001342153661
##########                DOCK_Rotatable_Bonds:                   8
##########                         Heavy_Atoms:                  29
##########                    Molecular_Weight:             395.548
##########                DOCK_Rotatable_Bonds:                   8
##########                       Formal_Charge:          -0.0400005
##########                     HBond_Acceptors:                   6
##########                        HBond_Donors:                   1
##########                         Heavy_Atoms:                  29
##########                          Grid_Score:          -31.648705
##########                     Grid_vdw_energy:          -31.198822
##########                      Grid_es_energy:           -0.449883
##########           Internal_energy_repulsive:           14.335231

@<TRIPOS>MOLECULE
ZINC001342153661
 62 65 1 0 0
SMALL
USER_CHARGES


@<TRIPOS>ATOM
      1 C1         -7.6530    3.6760   49.2886 C.2     1  ZINC001342153661   -0.1400
      2 C2         -8.1795    3.7345   50.4868 C.2     1  ZINC001342153661   -0.1600
      3 C3         -9.5784    4.2643   50.6700 C.3     1  ZINC001342153661   -0.1200
      4 C4         -7.3863    3.2724   51.6818 C.3     1  ZINC001342153661    0.1500
      5 N5         -6.9022    1.9094   51.4493 N.pl3   1  ZINC001342153661   -0.4700
      6 C6         -7.5833    0.7434   51.6652 C.2     1  ZINC001342153661    0.1800
      7 C7         -8.9889    0.6148   52.1930 C.3     1  ZINC001342153661   -0.0600
      8 C8         -8.9448    0.2361   53.6747 C.3     1  ZINC001342153661    0.1600
      9 H9         -8.2684   -0.6072   53.8142 H       1  ZINC001342153661    0.1000
     10 O10        -8.4791    1.3512   54.4376 O.3     1  ZINC001342153661   -0.5400
     11 C11       -10.3271   -0.1466   54.1369 C.ar    1  ZINC001342153661   -0.1700
     12 C12       -11.4295    0.5957   53.7428 C.ar    1  ZINC001342153661   -0.0600
     13 C13       -12.6823    0.2062   54.1921 C.ar    1  ZINC001342153661   -0.1700
     14 C14       -12.7894   -0.9010   55.0120 C.ar    1  ZINC001342153661    0.1000
     15 N15       -11.7183   -1.5838   55.3668 N.ar    1  ZINC001342153661   -0.4800
     16 C16       -10.5124   -1.2457   54.9544 C.ar    1  ZINC001342153661    0.1100
     17 N17        -6.7918   -0.2356   51.3293 N.2     1  ZINC001342153661   -0.2700
     18 N18        -5.6659    0.2288   50.9190 N.2     1  ZINC001342153661   -0.3200
     19 C19        -5.6804    1.5401   50.9669 C.2     1  ZINC001342153661    0.3600
     20 N20        -4.6472    2.3893   50.6040 N.3     1  ZINC001342153661   -0.4500
     21 C21        -3.9631    1.9012   49.3998 C.3     1  ZINC001342153661    0.0500
     22 C22        -2.9280    2.9331   48.9460 C.3     1  ZINC001342153661   -0.1200
     23 C23        -1.9165    3.1636   50.0722 C.3     1  ZINC001342153661   -0.1200
     24 C24        -2.6600    3.6248   51.3288 C.3     1  ZINC001342153661   -0.0800
     25 H25        -3.1570    4.5742   51.1297 H       1  ZINC001342153661    0.0800
     26 C26        -1.6633    3.8007   52.4762 C.3     1  ZINC001342153661   -0.0800
     27 C27        -0.5873    4.8506   52.1033 C.3     1  ZINC001342153661   -0.1200
     28 C28        -0.0884    5.3352   53.4873 C.3     1  ZINC001342153661   -0.1300
     29 C29        -1.3628    5.3758   54.3558 C.3     1  ZINC001342153661   -0.1300
     30 C30        -2.3641    4.4002   53.7129 C.3     1  ZINC001342153661   -0.1200
     31 C31        -3.7028    2.5728   51.7135 C.3     1  ZINC001342153661    0.0800
     32 H32        -8.2215    4.0072   48.4322 H       1  ZINC001342153661    0.1000
     33 H33        -6.6489    3.3004   49.1578 H       1  ZINC001342153661    0.1100
     34 H34       -10.2955    3.4588   50.5129 H       1  ZINC001342153661    0.0700
     35 H35        -9.6887    4.6570   51.6808 H       1  ZINC001342153661    0.0600
     36 H36        -9.7628    5.0607   49.9489 H       1  ZINC001342153661    0.0700
     37 H37        -6.5370    3.9385   51.8338 H       1  ZINC001342153661    0.1000
     38 H38        -8.0218    3.2861   52.5672 H       1  ZINC001342153661    0.1000
     39 H39        -9.5093    1.5655   52.0763 H       1  ZINC001342153661    0.1100
     40 H40        -9.5170   -0.1591   51.6358 H       1  ZINC001342153661    0.1000
     41 H41        -7.6095    1.6767   54.1677 H       1  ZINC001342153661    0.3800
     42 H42       -11.3155    1.4571   53.1014 H       1  ZINC001342153661    0.1300
     43 H43       -13.5631    0.7614   53.9053 H       1  ZINC001342153661    0.1400
     44 H44       -13.7614   -1.2106   55.3663 H       1  ZINC001342153661    0.1600
     45 H45        -9.6586   -1.8291   55.2661 H       1  ZINC001342153661    0.1500
     46 H46        -3.4627    0.9589   49.6230 H       1  ZINC001342153661    0.0500
     47 H47        -4.6931    1.7454   48.6054 H       1  ZINC001342153661    0.0700
     48 H48        -2.4096    2.5636   48.0612 H       1  ZINC001342153661    0.0800
     49 H49        -3.4293    3.8716   48.7094 H       1  ZINC001342153661    0.0700
     50 H50        -1.3874    2.2341   50.2825 H       1  ZINC001342153661    0.0600
     51 H51        -1.2027    3.9297   49.7695 H       1  ZINC001342153661    0.0700
     52 H52        -1.1984    2.8471   52.7261 H       1  ZINC001342153661    0.0800
     53 H53         0.2240    4.3890   51.5403 H       1  ZINC001342153661    0.0700
     54 H54        -1.0289    5.6739   51.5420 H       1  ZINC001342153661    0.0700
     55 H55         0.6329    4.6304   53.9011 H       1  ZINC001342153661    0.0600
     56 H56         0.3508    6.3295   53.4078 H       1  ZINC001342153661    0.0600
     57 H57        -1.1320    5.0578   55.3725 H       1  ZINC001342153661    0.0600
     58 H58        -1.7768    6.3841   54.3643 H       1  ZINC001342153661    0.0600
     59 H59        -3.2641    4.9350   53.4094 H       1  ZINC001342153661    0.0600
     60 H60        -2.6193    3.6088   54.4176 H       1  ZINC001342153661    0.0600
     61 H61        -4.2437    2.9049   52.5997 H       1  ZINC001342153661    0.0900
     62 H62        -3.2037    1.6274   51.9259 H       1  ZINC001342153661    0.0500
@<TRIPOS>BOND
     1     1     2    2
     2     1    32    1
     3     1    33    1
     4     2     3    1
     5     2     4    1
     6     3    34    1
     7     3    35    1
     8     3    36    1
     9     4     5    1
    10     4    37    1
    11     4    38    1
    12     5    19    1
    13     5     6    1
    14     6     7    1
    15     6    17    2
    16     7     8    1
    17     7    39    1
    18     7    40    1
    19     8     9    1
    20     8    10    1
    21     8    11    1
    22    10    41    1
    23    11    16   ar
    24    11    12   ar
    25    12    13   ar
    26    12    42    1
    27    13    14   ar
    28    13    43    1
    29    14    15   ar
    30    14    44    1
    31    15    16   ar
    32    16    45    1
    33    17    18    1
    34    18    19    2
    35    19    20    1
    36    20    31    1
    37    20    21    1
    38    21    22    1
    39    21    46    1
    40    21    47    1
    41    22    23    1
    42    22    48    1
    43    22    49    1
    44    23    24    1
    45    23    50    1
    46    23    51    1
    47    24    25    1
    48    24    26    1
    49    24    31    1
    50    26    30    1
    51    26    27    1
    52    26    52    1
    53    27    28    1
    54    27    53    1
    55    27    54    1
    56    28    29    1
    57    28    55    1
    58    28    56    1
    59    29    30    1
    60    29    57    1
    61    29    58    1
    62    30    59    1
    63    30    60    1
    64    31    61    1
    65    31    62    1
@<TRIPOS>SUBSTRUCTURE
     1 ZINC001342153661        1 TEMP              0 ****  ****    0 ROOT


##########                                Name:    ZINC001707804910
##########                DOCK_Rotatable_Bonds:                   4
##########                         Heavy_Atoms:                  26
##########                    Molecular_Weight:             358.403
##########                DOCK_Rotatable_Bonds:                   4
##########                       Formal_Charge:          -0.0399996
##########                     HBond_Acceptors:                  10
##########                        HBond_Donors:                   0
##########                         Heavy_Atoms:                  26
##########                          Grid_Score:          -31.625528
##########                     Grid_vdw_energy:          -30.348951
##########                      Grid_es_energy:           -1.276576
##########           Internal_energy_repulsive:            9.603494

@<TRIPOS>MOLECULE
ZINC001707804910
 48 51 1 0 0
SMALL
USER_CHARGES


@<TRIPOS>ATOM
      1 C1         -8.6104    5.6333   47.9256 C.3     1  ZINC001707804910   -0.0700
      2 C2         -8.8314    4.8747   49.2089 C.2     1  ZINC001707804910    0.0700
      3 N3         -9.9916    4.6017   49.7486 N.2     1  ZINC001707804910   -0.2800
      4 N4         -9.7665    3.8841   50.9304 N.pl3   1  ZINC001707804910   -0.3700
      5 C5        -10.7964    3.3819   51.8433 C.3     1  ZINC001707804910    0.0900
      6 C6         -8.4333    3.7370   51.0796 C.2     1  ZINC001707804910    0.0500
      7 C7         -7.7390    3.0278   52.2136 C.3     1  ZINC001707804910    0.1800
      8 N8         -7.3246    1.6932   51.7741 N.pl3   1  ZINC001707804910   -0.4600
      9 C9         -8.0141    0.5224   51.9277 C.2     1  ZINC001707804910    0.1900
     10 C10        -9.3588    0.3578   52.5880 C.3     1  ZINC001707804910   -0.0700
     11 N11        -7.2935   -0.4243   51.3967 N.2     1  ZINC001707804910   -0.2800
     12 N12        -6.2039    0.0649   50.9218 N.2     1  ZINC001707804910   -0.3000
     13 C13        -6.1732    1.3614   51.1215 C.2     1  ZINC001707804910    0.3500
     14 N14        -5.1589    2.2286   50.7477 N.3     1  ZINC001707804910   -0.4600
     15 C15        -4.3644    1.6665   49.6459 C.3     1  ZINC001707804910    0.0200
     16 C16        -3.2961    2.6794   49.2258 C.3     1  ZINC001707804910    0.0700
     17 O17        -2.4901    3.0124   50.3594 O.3     1  ZINC001707804910   -0.3600
     18 C18        -3.2317    3.5631   51.4511 C.3     1  ZINC001707804910    0.2000
     19 H19        -3.7117    4.4892   51.1347 H       1  ZINC001707804910    0.1000
     20 C20        -2.2992    3.8469   52.6005 C.2     1  ZINC001707804910    0.1600
     21 N21        -1.2544    4.6245   52.5717 N.2     1  ZINC001707804910   -0.2500
     22 N22        -0.6954    4.6316   53.7306 N.2     1  ZINC001707804910   -0.2900
     23 C23        -1.3645    3.8588   54.5380 C.2     1  ZINC001707804910    0.1700
     24 C24        -1.0435    3.5903   55.9858 C.3     1  ZINC001707804910   -0.0600
     25 O25        -2.3962    3.3489   53.8446 O.3     1  ZINC001707804910   -0.2200
     26 C26        -4.2995    2.5592   51.8937 C.3     1  ZINC001707804910    0.0400
     27 C27        -7.8319    4.3358   50.0255 C.2     1  ZINC001707804910   -0.2300
     28 H28        -8.6005    4.9357   47.0883 H       1  ZINC001707804910    0.0800
     29 H29        -9.4150    6.3556   47.7873 H       1  ZINC001707804910    0.0700
     30 H30        -7.6559    6.1574   47.9731 H       1  ZINC001707804910    0.0800
     31 H31       -11.1663    2.4225   51.4813 H       1  ZINC001707804910    0.0800
     32 H32       -10.3695    3.2548   52.8381 H       1  ZINC001707804910    0.0900
     33 H33       -11.6198    4.0946   51.8895 H       1  ZINC001707804910    0.0900
     34 H34        -6.8617    3.5994   52.5166 H       1  ZINC001707804910    0.1100
     35 H35        -8.4225    2.9365   53.0577 H       1  ZINC001707804910    0.1200
     36 H36       -10.1467    0.5760   51.8670 H       1  ZINC001707804910    0.0900
     37 H37        -9.4657   -0.6668   52.9440 H       1  ZINC001707804910    0.1000
     38 H38        -9.4365    1.0451   53.4304 H       1  ZINC001707804910    0.0700
     39 H39        -3.8833    0.7460   49.9767 H       1  ZINC001707804910    0.0700
     40 H40        -5.0166    1.4529   48.7990 H       1  ZINC001707804910    0.0900
     41 H41        -2.6682    2.2446   48.4480 H       1  ZINC001707804910    0.1200
     42 H42        -3.7778    3.5797   48.8446 H       1  ZINC001707804910    0.0700
     43 H43        -1.5516    4.3233   56.6126 H       1  ZINC001707804910    0.1000
     44 H44        -1.3798    2.5885   56.2529 H       1  ZINC001707804910    0.1000
     45 H45         0.0330    3.6651   56.1392 H       1  ZINC001707804910    0.1100
     46 H46        -4.9042    2.9975   52.6877 H       1  ZINC001707804910    0.1000
     47 H47        -3.8173    1.6531   52.2606 H       1  ZINC001707804910    0.0800
     48 H48        -6.7680    4.3929   49.8494 H       1  ZINC001707804910    0.1500
@<TRIPOS>BOND
     1     1     2    1
     2     1    28    1
     3     1    29    1
     4     1    30    1
     5     2    27    1
     6     2     3    2
     7     3     4    1
     8     4     5    1
     9     4     6    1
    10     5    31    1
    11     5    32    1
    12     5    33    1
    13     6     7    1
    14     6    27    2
    15     7     8    1
    16     7    34    1
    17     7    35    1
    18     8    13    1
    19     8     9    1
    20     9    10    1
    21     9    11    2
    22    10    36    1
    23    10    37    1
    24    10    38    1
    25    11    12    1
    26    12    13    2
    27    13    14    1
    28    14    26    1
    29    14    15    1
    30    15    16    1
    31    15    39    1
    32    15    40    1
    33    16    17    1
    34    16    41    1
    35    16    42    1
    36    17    18    1
    37    18    19    1
    38    18    20    1
    39    18    26    1
    40    20    25    1
    41    20    21    2
    42    21    22    1
    43    22    23    2
    44    23    24    1
    45    23    25    1
    46    24    43    1
    47    24    44    1
    48    24    45    1
    49    26    46    1
    50    26    47    1
    51    27    48    1
@<TRIPOS>SUBSTRUCTURE
     1 ZINC001707804910        1 TEMP              0 ****  ****    0 ROOT


##########                                Name:    ZINC001041713551
##########                DOCK_Rotatable_Bonds:                  10
##########                         Heavy_Atoms:                  22
##########                    Molecular_Weight:             330.448
##########                DOCK_Rotatable_Bonds:                  10
##########                       Formal_Charge:          -0.0100006
##########                     HBond_Acceptors:                   7
##########                        HBond_Donors:                   2
##########                         Heavy_Atoms:                  22
##########                          Grid_Score:          -31.622339
##########                     Grid_vdw_energy:          -30.696230
##########                      Grid_es_energy:           -0.926109
##########           Internal_energy_repulsive:            3.121700

@<TRIPOS>MOLECULE
ZINC001041713551
 48 49 1 0 0
SMALL
USER_CHARGES


@<TRIPOS>ATOM
      1 C1         -8.5324   -0.8313   59.3244 C.3     1  ZINC001041713551   -0.1500
      2 C2         -9.3501    0.3497   58.7977 C.3     1  ZINC001041713551   -0.1100
      3 C3         -9.0298    0.5725   57.3183 C.3     1  ZINC001041713551   -0.1000
      4 S4         -9.9587   -0.6174   56.3125 S.3     1  ZINC001041713551   -0.1800
      5 C5        -10.1427    0.2442   54.7269 C.3     1  ZINC001041713551   -0.1300
      6 C6         -9.2661   -0.4140   53.6928 C.2     1  ZINC001041713551    0.5300
      7 O7         -9.2500   -1.6225   53.5920 O.2     1  ZINC001041713551   -0.5100
      8 N8         -8.4999    0.3403   52.8801 N.am    1  ZINC001041713551   -0.7300
      9 C9         -7.6490   -0.2995   51.8737 C.3     1  ZINC001041713551    0.1000
     10 C10        -6.8501    0.7703   51.1267 C.3     1  ZINC001041713551    0.0900
     11 O11        -7.6630    1.8499   50.6621 O.3     1  ZINC001041713551   -0.5200
     12 C12        -5.5779    1.2229   51.8661 C.3     1  ZINC001041713551    0.0900
     13 N13        -4.9177    1.1825   50.5469 N.am    1  ZINC001041713551   -0.6400
     14 C14        -3.8451    1.7957   50.0083 C.2     1  ZINC001041713551    0.5500
     15 O15        -3.5259    1.5630   48.8616 O.2     1  ZINC001041713551   -0.5100
     16 C16        -3.0424    2.7704   50.8309 C.3     1  ZINC001041713551    0.0800
     17 H17        -3.2196    2.5844   51.8901 H       1  ZINC001041713551    0.0800
     18 C18        -3.4667    4.2003   50.4858 C.3     1  ZINC001041713551   -0.1500
     19 C19        -2.6053    5.1862   51.2810 C.3     1  ZINC001041713551   -0.1200
     20 C20        -1.1289    4.9260   50.9667 C.3     1  ZINC001041713551   -0.1600
     21 C21        -0.7950    3.4682   51.2932 C.3     1  ZINC001041713551    0.0600
     22 O22        -1.6524    2.6048   50.5439 O.3     1  ZINC001041713551   -0.3600
     23 C23        -5.9036    0.2011   50.0542 C.3     1  ZINC001041713551    0.1200
     24 H24        -7.4697   -0.6168   59.2110 H       1  ZINC001041713551    0.0600
     25 H25        -8.7607   -0.9900   60.3782 H       1  ZINC001041713551    0.0600
     26 H26        -8.7842   -1.7285   58.7589 H       1  ZINC001041713551    0.0600
     27 H27       -10.4128    0.1352   58.9110 H       1  ZINC001041713551    0.0700
     28 H28        -9.0983    1.2470   59.3631 H       1  ZINC001041713551    0.0700
     29 H29        -9.3115    1.5865   57.0342 H       1  ZINC001041713551    0.0800
     30 H30        -7.9616    0.4324   57.1528 H       1  ZINC001041713551    0.0800
     31 H31       -11.1831    0.1953   54.4055 H       1  ZINC001041713551    0.1100
     32 H32        -9.8470    1.2868   54.8435 H       1  ZINC001041713551    0.1100
     33 H33        -8.5118    1.3068   52.9616 H       1  ZINC001041713551    0.4000
     34 H34        -6.9624   -0.9896   52.3640 H       1  ZINC001041713551    0.0900
     35 H35        -8.2718   -0.8476   51.1667 H       1  ZINC001041713551    0.0900
     36 H36        -8.2823    2.1885   51.3232 H       1  ZINC001041713551    0.3800
     37 H37        -5.6495    2.2241   52.2912 H       1  ZINC001041713551    0.0900
     38 H38        -5.1944    0.4862   52.5720 H       1  ZINC001041713551    0.1000
     39 H39        -3.3279    4.3740   49.4186 H       1  ZINC001041713551    0.0800
     40 H40        -4.5159    4.3417   50.7453 H       1  ZINC001041713551    0.0800
     41 H41        -2.8640    6.2067   50.9984 H       1  ZINC001041713551    0.0700
     42 H42        -2.7812    5.0461   52.3476 H       1  ZINC001041713551    0.0700
     43 H43        -0.9429    5.1143   49.9093 H       1  ZINC001041713551    0.0700
     44 H44        -0.5061    5.5864   51.5703 H       1  ZINC001041713551    0.0800
     45 H45         0.2437    3.2657   51.0314 H       1  ZINC001041713551    0.1000
     46 H46        -0.9425    3.2912   52.3586 H       1  ZINC001041713551    0.0500
     47 H47        -5.6159   -0.8358   50.2279 H       1  ZINC001041713551    0.1100
     48 H48        -6.2353    0.3865   49.0326 H       1  ZINC001041713551    0.1000
@<TRIPOS>BOND
     1     1     2    1
     2     1    24    1
     3     1    25    1
     4     1    26    1
     5     2     3    1
     6     2    27    1
     7     2    28    1
     8     3     4    1
     9     3    29    1
    10     3    30    1
    11     4     5    1
    12     5     6    1
    13     5    31    1
    14     5    32    1
    15     6     7    2
    16     6     8   am
    17     8     9    1
    18     8    33    1
    19     9    10    1
    20     9    34    1
    21     9    35    1
    22    10    23    1
    23    10    11    1
    24    10    12    1
    25    11    36    1
    26    12    13    1
    27    12    37    1
    28    12    38    1
    29    13    14   am
    30    13    23    1
    31    14    15    2
    32    14    16    1
    33    16    17    1
    34    16    22    1
    35    16    18    1
    36    18    19    1
    37    18    39    1
    38    18    40    1
    39    19    20    1
    40    19    41    1
    41    19    42    1
    42    20    21    1
    43    20    43    1
    44    20    44    1
    45    21    22    1
    46    21    45    1
    47    21    46    1
    48    23    47    1
    49    23    48    1
@<TRIPOS>SUBSTRUCTURE
     1 ZINC001041713551        1 TEMP              0 ****  ****    0 ROOT


##########                                Name:    ZINC001291841503
##########                DOCK_Rotatable_Bonds:                   7
##########                         Heavy_Atoms:                  28
##########                    Molecular_Weight:             397.544
##########                DOCK_Rotatable_Bonds:                   7
##########                       Formal_Charge:         -0.00999964
##########                     HBond_Acceptors:                   7
##########                        HBond_Donors:                   0
##########                         Heavy_Atoms:                  28
##########                          Grid_Score:          -31.607203
##########                     Grid_vdw_energy:          -30.377047
##########                      Grid_es_energy:           -1.230157
##########           Internal_energy_repulsive:           18.093882

@<TRIPOS>MOLECULE
ZINC001291841503
 55 58 1 0 0
SMALL
USER_CHARGES


@<TRIPOS>ATOM
      1 C1          2.4071    3.9152   51.3085 C.3     1  ZINC001291841503   -0.1500
      2 C2          1.0323    3.9986   50.6419 C.3     1  ZINC001291841503   -0.1100
      3 C3          0.3713    2.6190   50.6617 C.3     1  ZINC001291841503    0.0500
      4 H4          0.4136    2.2102   51.6713 H       1  ZINC001291841503    0.0900
      5 C5         -1.0672    2.7450   50.2308 C.2     1  ZINC001291841503    0.2000
      6 N6         -1.5163    2.6760   49.0096 N.2     1  ZINC001291841503   -0.2700
      7 N7         -2.7929    2.8250   49.0005 N.2     1  ZINC001291841503   -0.3100
      8 C8         -3.2303    2.9983   50.2254 C.2     1  ZINC001291841503    0.3600
      9 N9         -4.5476    3.1913   50.6102 N.3     1  ZINC001291841503   -0.4500
     10 C10        -5.0305    4.5134   50.1899 C.3     1  ZINC001291841503    0.0200
     11 C11        -5.4108    2.1245   50.0862 C.3     1  ZINC001291841503    0.0700
     12 H12        -5.4134    2.1301   48.9963 H       1  ZINC001291841503    0.0800
     13 C13        -4.9691    0.7386   50.6306 C.3     1  ZINC001291841503   -0.1400
     14 C14        -6.3117   -0.0339   50.5924 C.3     1  ZINC001291841503    0.0500
     15 O15        -7.3119    0.9342   50.9471 O.3     1  ZINC001291841503   -0.3800
     16 C16        -6.8459    2.2572   50.6398 C.3     1  ZINC001291841503    0.0600
     17 N17        -2.1438    2.9469   51.0493 N.pl3   1  ZINC001291841503   -0.4700
     18 C18        -2.1320    3.0883   52.5074 C.3     1  ZINC001291841503    0.1900
     19 C19        -1.6830    4.4795   52.8736 C.2     1  ZINC001291841503   -0.2700
     20 C20        -1.8763    5.5847   52.1474 C.2     1  ZINC001291841503    0.0800
     21 N21        -1.3872    6.6841   52.6848 N.2     1  ZINC001291841503   -0.4800
     22 C22        -0.7923    6.5679   53.8238 C.2     1  ZINC001291841503    0.0500
     23 C23        -0.1711    7.7055   54.5925 C.3     1  ZINC001291841503   -0.0800
     24 S24        -0.8171    4.9376   54.3381 S.3     1  ZINC001291841503    0.1800
     25 C25         1.1002    1.6991   49.7165 C.ar    1  ZINC001291841503   -0.0900
     26 C26         1.5580    0.4728   50.1609 C.ar    1  ZINC001291841503   -0.0900
     27 C27         2.2265   -0.3710   49.2938 C.ar    1  ZINC001291841503   -0.1200
     28 C28         2.4368    0.0112   47.9822 C.ar    1  ZINC001291841503   -0.1200
     29 C29         1.9783    1.2371   47.5374 C.ar    1  ZINC001291841503   -0.1200
     30 C30         1.3059    2.0791   48.4034 C.ar    1  ZINC001291841503   -0.1100
     31 H31         2.2911    3.5825   52.3400 H       1  ZINC001291841503    0.0500
     32 H32         3.0314    3.2053   50.7659 H       1  ZINC001291841503    0.0500
     33 H33         2.8780    4.8980   51.2943 H       1  ZINC001291841503    0.0600
     34 H34         0.4080    4.7084   51.1845 H       1  ZINC001291841503    0.0800
     35 H35         1.1483    4.3312   49.6104 H       1  ZINC001291841503    0.0800
     36 H36        -5.0562    4.5617   49.1012 H       1  ZINC001291841503    0.0500
     37 H37        -6.0335    4.6762   50.5844 H       1  ZINC001291841503    0.0900
     38 H38        -4.3604    5.2835   50.5720 H       1  ZINC001291841503    0.0700
     39 H39        -4.2310    0.2762   49.9755 H       1  ZINC001291841503    0.0900
     40 H40        -4.5913    0.8192   51.6499 H       1  ZINC001291841503    0.0800
     41 H41        -6.4976   -0.4200   49.5901 H       1  ZINC001291841503    0.0700
     42 H42        -6.3003   -0.8487   51.3164 H       1  ZINC001291841503    0.0900
     43 H43        -6.8356    2.8651   51.5445 H       1  ZINC001291841503    0.0800
     44 H44        -7.4956    2.7140   49.8932 H       1  ZINC001291841503    0.0700
     45 H45        -3.1351    2.9159   52.8973 H       1  ZINC001291841503    0.1100
     46 H46        -1.4448    2.3598   52.9375 H       1  ZINC001291841503    0.1100
     47 H47        -2.3911    5.5774   51.1981 H       1  ZINC001291841503    0.1700
     48 H48        -0.9143    8.1412   55.2604 H       1  ZINC001291841503    0.0900
     49 H49         0.6692    7.3325   55.1780 H       1  ZINC001291841503    0.0800
     50 H50         0.1808    8.4659   53.8953 H       1  ZINC001291841503    0.0900
     51 H51         1.3936    0.1742   51.1857 H       1  ZINC001291841503    0.1300
     52 H52         2.5848   -1.3288   49.6413 H       1  ZINC001291841503    0.1200
     53 H53         2.9598   -0.6478   47.3049 H       1  ZINC001291841503    0.1200
     54 H54         2.1429    1.5358   46.5127 H       1  ZINC001291841503    0.1200
     55 H55         0.9476    3.0368   48.0559 H       1  ZINC001291841503    0.1200
@<TRIPOS>BOND
     1     1     2    1
     2     1    31    1
     3     1    32    1
     4     1    33    1
     5     2     3    1
     6     2    34    1
     7     2    35    1
     8     3     4    1
     9     3     5    1
    10     3    25    1
    11     5    17    1
    12     5     6    2
    13     6     7    1
    14     7     8    2
    15     8     9    1
    16     8    17    1
    17     9    10    1
    18     9    11    1
    19    10    36    1
    20    10    37    1
    21    10    38    1
    22    11    12    1
    23    11    16    1
    24    11    13    1
    25    13    14    1
    26    13    39    1
    27    13    40    1
    28    14    15    1
    29    14    41    1
    30    14    42    1
    31    15    16    1
    32    16    43    1
    33    16    44    1
    34    17    18    1
    35    18    19    1
    36    18    45    1
    37    18    46    1
    38    19    24    1
    39    19    20    2
    40    20    21    1
    41    20    47    1
    42    21    22    2
    43    22    23    1
    44    22    24    1
    45    23    48    1
    46    23    49    1
    47    23    50    1
    48    25    30   ar
    49    25    26   ar
    50    26    27   ar
    51    26    51    1
    52    27    28   ar
    53    27    52    1
    54    28    29   ar
    55    28    53    1
    56    29    30   ar
    57    29    54    1
    58    30    55    1
@<TRIPOS>SUBSTRUCTURE
     1 ZINC001291841503        1 TEMP              0 ****  ****    0 ROOT


##########                                Name:    ZINC000750807956
##########                DOCK_Rotatable_Bonds:                  11
##########                         Heavy_Atoms:                  26
##########                    Molecular_Weight:             368.473
##########                DOCK_Rotatable_Bonds:                  11
##########                       Formal_Charge:        -8.12113e-07
##########                     HBond_Acceptors:                   7
##########                        HBond_Donors:                   1
##########                         Heavy_Atoms:                  26
##########                          Grid_Score:          -31.588062
##########                     Grid_vdw_energy:          -30.879189
##########                      Grid_es_energy:           -0.708873
##########           Internal_energy_repulsive:           71.468079

@<TRIPOS>MOLECULE
ZINC000750807956
 58 59 1 0 0
SMALL
USER_CHARGES


@<TRIPOS>ATOM
      1 C1         -9.4048    5.5770   48.8184 C.3     1  ZINC000750807956   -0.1500
      2 C2         -8.0715    4.9872   49.2827 C.3     1  ZINC000750807956    0.0700
      3 O3         -8.3138    3.9985   50.3179 O.3     1  ZINC000750807956   -0.3600
      4 C4         -7.3815    3.8782   51.2761 C.2     1  ZINC000750807956    0.4800
      5 O5         -7.3692    4.6483   52.2070 O.2     1  ZINC000750807956   -0.4900
      6 C6         -6.3502    2.7827   51.1907 C.3     1  ZINC000750807956    0.1600
      7 H7         -5.5156    3.0141   51.8526 H       1  ZINC000750807956    0.1000
      8 C8         -5.8448    2.6644   49.7494 C.3     1  ZINC000750807956   -0.1300
      9 C9         -4.9037    1.4625   49.6402 C.3     1  ZINC000750807956   -0.1200
     10 C10        -5.6651    0.1824   49.9917 C.3     1  ZINC000750807956   -0.1400
     11 C11        -6.1685    0.2727   51.4358 C.3     1  ZINC000750807956    0.1100
     12 N12        -6.9552    1.5046   51.5893 N.am    1  ZINC000750807956   -0.6100
     13 C13        -8.2091    1.4616   52.0814 C.2     1  ZINC000750807956    0.5100
     14 O14        -8.8481    2.4852   52.2032 O.2     1  ZINC000750807956   -0.5000
     15 C15        -8.8173    0.1417   52.4802 C.3     1  ZINC000750807956   -0.1400
     16 C16       -10.1605    0.3870   53.1707 C.3     1  ZINC000750807956    0.2100
     17 H17       -10.1209    1.3286   53.7182 H       1  ZINC000750807956    0.1000
     18 N18       -10.4376   -0.7086   54.1029 N.am    1  ZINC000750807956   -0.7000
     19 C19        -9.8377   -0.7348   55.3094 C.2     1  ZINC000750807956    0.6600
     20 O20        -9.0680    0.1512   55.6247 O.2     1  ZINC000750807956   -0.5600
     21 O21       -10.0910   -1.7425   56.1655 O.3     1  ZINC000750807956   -0.3700
     22 C22       -11.0449   -1.4804   57.2285 C.3     1  ZINC000750807956    0.1400
     23 C23       -11.4293   -2.7978   57.9051 C.3     1  ZINC000750807956   -0.1800
     24 C24       -10.4144   -0.5425   58.2598 C.3     1  ZINC000750807956   -0.1400
     25 C25       -12.2961   -0.8249   56.6407 C.3     1  ZINC000750807956   -0.1800
     26 C26       -11.2697    0.4547   52.1190 C.3     1  ZINC000750807956   -0.1800
     27 C27       -12.7025    0.6577   52.6156 C.3     1  ZINC000750807956   -0.1700
     28 C28       -11.9670    1.8009   51.9135 C.3     1  ZINC000750807956   -0.1800
     29 H29        -9.9063    6.0503   49.6626 H       1  ZINC000750807956    0.0600
     30 H30        -9.2228    6.3193   48.0413 H       1  ZINC000750807956    0.0800
     31 H31       -10.0351    4.7816   48.4208 H       1  ZINC000750807956    0.0700
     32 H32        -7.5700    4.5140   48.4384 H       1  ZINC000750807956    0.0700
     33 H33        -7.4412    5.7827   49.6803 H       1  ZINC000750807956    0.0600
     34 H34        -6.6916    2.5256   49.0773 H       1  ZINC000750807956    0.0800
     35 H35        -5.3080    3.5728   49.4763 H       1  ZINC000750807956    0.0800
     36 H36        -4.5233    1.3906   48.6212 H       1  ZINC000750807956    0.0800
     37 H37        -4.0699    1.5903   50.3306 H       1  ZINC000750807956    0.0700
     38 H38        -6.5137    0.0670   49.3173 H       1  ZINC000750807956    0.0700
     39 H39        -5.0006   -0.6756   49.8911 H       1  ZINC000750807956    0.0800
     40 H40        -6.7945   -0.5911   51.6592 H       1  ZINC000750807956    0.0900
     41 H41        -5.3187    0.2970   52.1181 H       1  ZINC000750807956    0.0800
     42 H42        -8.9719   -0.4704   51.5917 H       1  ZINC000750807956    0.1200
     43 H43        -8.1456   -0.3755   53.1654 H       1  ZINC000750807956    0.1100
     44 H44       -11.0528   -1.4153   53.8517 H       1  ZINC000750807956    0.4000
     45 H45       -10.5379   -3.2648   58.3238 H       1  ZINC000750807956    0.0600
     46 H46       -12.1454   -2.6010   58.7029 H       1  ZINC000750807956    0.0700
     47 H47       -11.8785   -3.4660   57.1704 H       1  ZINC000750807956    0.0900
     48 H48       -10.1405    0.3961   57.7778 H       1  ZINC000750807956    0.0700
     49 H49       -11.1304   -0.3457   59.0577 H       1  ZINC000750807956    0.0800
     50 H50        -9.5229   -1.0095   58.6786 H       1  ZINC000750807956    0.0700
     51 H51       -12.7454   -1.4931   55.9060 H       1  ZINC000750807956    0.0900
     52 H52       -13.0122   -0.6281   57.4386 H       1  ZINC000750807956    0.0700
     53 H53       -12.0224    0.1136   56.1587 H       1  ZINC000750807956    0.0600
     54 H54       -11.1252   -0.1765   51.2421 H       1  ZINC000750807956    0.1100
     55 H55       -13.5011    0.1600   52.0655 H       1  ZINC000750807956    0.0900
     56 H56       -12.8549    0.7430   53.6916 H       1  ZINC000750807956    0.0900
     57 H57       -11.6356    2.6383   52.5275 H       1  ZINC000750807956    0.1200
     58 H58       -12.2817    2.0553   50.9014 H       1  ZINC000750807956    0.0900
@<TRIPOS>BOND
     1     1     2    1
     2     1    29    1
     3     1    30    1
     4     1    31    1
     5     2     3    1
     6     2    32    1
     7     2    33    1
     8     3     4    1
     9     4     5    2
    10     4     6    1
    11     6     7    1
    12     6    12    1
    13     6     8    1
    14     8     9    1
    15     8    34    1
    16     8    35    1
    17     9    10    1
    18     9    36    1
    19     9    37    1
    20    10    11    1
    21    10    38    1
    22    10    39    1
    23    11    12    1
    24    11    40    1
    25    11    41    1
    26    12    13   am
    27    13    14    2
    28    13    15    1
    29    15    16    1
    30    15    42    1
    31    15    43    1
    32    16    17    1
    33    16    18    1
    34    16    26    1
    35    18    19   am
    36    18    44    1
    37    19    20    2
    38    19    21    1
    39    21    22    1
    40    22    23    1
    41    22    24    1
    42    22    25    1
    43    23    45    1
    44    23    46    1
    45    23    47    1
    46    24    48    1
    47    24    49    1
    48    24    50    1
    49    25    51    1
    50    25    52    1
    51    25    53    1
    52    26    28    1
    53    26    27    1
    54    26    54    1
    55    27    28    1
    56    27    55    1
    57    27    56    1
    58    28    57    1
    59    28    58    1
@<TRIPOS>SUBSTRUCTURE
     1 ZINC000750807956        1 TEMP              0 ****  ****    0 ROOT


##########                                Name:    ZINC000502834785
##########                DOCK_Rotatable_Bonds:                   9
##########                         Heavy_Atoms:                  26
##########                    Molecular_Weight:             356.468
##########                DOCK_Rotatable_Bonds:                   9
##########                       Formal_Charge:           0.0199998
##########                     HBond_Acceptors:                   6
##########                        HBond_Donors:                   2
##########                         Heavy_Atoms:                  26
##########                          Grid_Score:          -31.563808
##########                     Grid_vdw_energy:          -32.299591
##########                      Grid_es_energy:            0.735782
##########           Internal_energy_repulsive:           20.654284

@<TRIPOS>MOLECULE
ZINC000502834785
 54 56 1 0 0
SMALL
USER_CHARGES


@<TRIPOS>ATOM
      1 C1         -1.7437    3.6330   51.3692 C.3     1  ZINC000502834785   -0.1800
      2 C2         -2.6243    3.3004   50.1630 C.3     1  ZINC000502834785    0.0800
      3 C3         -1.7415    2.8650   48.9917 C.3     1  ZINC000502834785   -0.1500
      4 O4         -3.5195    2.2402   50.5047 O.3     1  ZINC000502834785   -0.3800
      5 C5         -4.6493    2.1309   49.6366 C.3     1  ZINC000502834785    0.1000
      6 C6         -5.8188    1.5683   50.4025 C.ar    1  ZINC000502834785   -0.0800
      7 C7         -7.0052    2.2746   50.4696 C.ar    1  ZINC000502834785   -0.1000
      8 C8         -8.0780    1.7585   51.1722 C.ar    1  ZINC000502834785   -0.1000
      9 C9         -7.9645    0.5359   51.8072 C.ar    1  ZINC000502834785   -0.1000
     10 C10        -9.1340   -0.0265   52.5736 C.3     1  ZINC000502834785    0.1600
     11 N11        -8.9480    0.2277   54.0043 N.am    1  ZINC000502834785   -0.7300
     12 C12        -9.7963   -0.3136   54.9008 C.2     1  ZINC000502834785    0.5100
     13 O13       -10.7128   -1.0124   54.5232 O.2     1  ZINC000502834785   -0.5200
     14 C14        -9.6059   -0.0506   56.3724 C.3     1  ZINC000502834785    0.0300
     15 N15       -10.0588   -1.2177   57.1410 N.3     1  ZINC000502834785   -0.5000
     16 C16       -11.5351   -1.2895   57.1749 C.3     1  ZINC000502834785    0.0500
     17 C17       -11.8703   -1.8886   58.5635 C.3     1  ZINC000502834785   -0.1300
     18 C18       -10.7881   -1.2296   59.4586 C.3     1  ZINC000502834785   -0.1300
     19 C19        -9.5595   -1.1637   58.5272 C.3     1  ZINC000502834785    0.1500
     20 H20        -8.9032   -2.0128   58.7184 H       1  ZINC000502834785    0.1100
     21 C21        -8.8110    0.1240   58.7563 C.2     1  ZINC000502834785    0.0600
     22 N22        -7.5141    0.2463   58.8787 N.2     1  ZINC000502834785   -0.2900
     23 N23        -7.2191    1.6010   59.0788 N.pl3   1  ZINC000502834785   -0.4800
     24 C24        -8.3824    2.2848   59.0719 C.2     1  ZINC000502834785    0.0600
     25 C25        -9.3822    1.3958   58.8688 C.2     1  ZINC000502834785   -0.2600
     26 C26        -6.7786   -0.1710   51.7389 C.ar    1  ZINC000502834785   -0.1000
     27 C27        -5.7071    0.3433   51.0331 C.ar    1  ZINC000502834785   -0.1000
     28 H28        -2.3727    3.9432   52.2037 H       1  ZINC000502834785    0.0600
     29 H29        -1.1703    2.7511   51.6547 H       1  ZINC000502834785    0.0600
     30 H30        -1.0609    4.4417   51.1086 H       1  ZINC000502834785    0.0700
     31 H31        -3.1977    4.1823   49.8776 H       1  ZINC000502834785    0.0600
     32 H32        -1.1681    1.9831   49.2772 H       1  ZINC000502834785    0.0600
     33 H33        -2.3688    2.6281   48.1324 H       1  ZINC000502834785    0.0600
     34 H34        -1.0587    3.6736   48.7311 H       1  ZINC000502834785    0.0700
     35 H35        -4.9080    3.1171   49.2510 H       1  ZINC000502834785    0.0600
     36 H36        -4.4064    1.4684   48.8058 H       1  ZINC000502834785    0.0600
     37 H37        -7.0938    3.2298   49.9735 H       1  ZINC000502834785    0.1300
     38 H38        -9.0047    2.3107   51.2253 H       1  ZINC000502834785    0.1300
     39 H39       -10.0534    0.4519   52.2361 H       1  ZINC000502834785    0.0800
     40 H40        -9.1988   -1.1007   52.4009 H       1  ZINC000502834785    0.0800
     41 H41        -8.2141    0.7857   54.3064 H       1  ZINC000502834785    0.4000
     42 H42        -8.5505    0.1309   56.5755 H       1  ZINC000502834785    0.1000
     43 H43       -10.1876    0.8240   56.6634 H       1  ZINC000502834785    0.0800
     44 H44       -11.9657   -0.2929   57.0776 H       1  ZINC000502834785    0.0400
     45 H45       -11.9017   -1.9413   56.3818 H       1  ZINC000502834785    0.1000
     46 H46       -12.8712   -1.5980   58.8829 H       1  ZINC000502834785    0.0800
     47 H47       -11.7639   -2.9734   58.5568 H       1  ZINC000502834785    0.0800
     48 H48       -11.0959   -0.2289   59.7620 H       1  ZINC000502834785    0.0800
     49 H49       -10.5784   -1.8502   60.3299 H       1  ZINC000502834785    0.0800
     50 H50        -6.3348    1.9806   59.2006 H       1  ZINC000502834785    0.4400
     51 H51        -8.4950    3.3511   59.2011 H       1  ZINC000502834785    0.1800
     52 H52       -10.4356    1.6267   58.8101 H       1  ZINC000502834785    0.1500
     53 H53        -6.6901   -1.1264   52.2347 H       1  ZINC000502834785    0.1300
     54 H54        -4.7805   -0.2090   50.9798 H       1  ZINC000502834785    0.1200
@<TRIPOS>BOND
     1     1     2    1
     2     1    28    1
     3     1    29    1
     4     1    30    1
     5     2     3    1
     6     2     4    1
     7     2    31    1
     8     3    32    1
     9     3    33    1
    10     3    34    1
    11     4     5    1
    12     5     6    1
    13     5    35    1
    14     5    36    1
    15     6    27   ar
    16     6     7   ar
    17     7     8   ar
    18     7    37    1
    19     8     9   ar
    20     8    38    1
    21     9    10    1
    22     9    26   ar
    23    10    11    1
    24    10    39    1
    25    10    40    1
    26    11    12   am
    27    11    41    1
    28    12    13    2
    29    12    14    1
    30    14    15    1
    31    14    42    1
    32    14    43    1
    33    15    19    1
    34    15    16    1
    35    16    17    1
    36    16    44    1
    37    16    45    1
    38    17    18    1
    39    17    46    1
    40    17    47    1
    41    18    19    1
    42    18    48    1
    43    18    49    1
    44    19    20    1
    45    19    21    1
    46    21    25    1
    47    21    22    2
    48    22    23    1
    49    23    24    1
    50    23    50    1
    51    24    25    2
    52    24    51    1
    53    25    52    1
    54    26    27   ar
    55    26    53    1
    56    27    54    1
@<TRIPOS>SUBSTRUCTURE
     1 ZINC000502834785        1 TEMP              0 ****  ****    0 ROOT


##########                                Name:    ZINC000174621331
##########                DOCK_Rotatable_Bonds:                   8
##########                         Heavy_Atoms:                  25
##########                    Molecular_Weight:             366.438
##########                DOCK_Rotatable_Bonds:                   8
##########                       Formal_Charge:        -5.96046e-08
##########                     HBond_Acceptors:                   8
##########                        HBond_Donors:                   3
##########                         Heavy_Atoms:                  25
##########                          Grid_Score:          -31.544931
##########                     Grid_vdw_energy:          -30.150230
##########                      Grid_es_energy:           -1.394701
##########           Internal_energy_repulsive:           13.972580

@<TRIPOS>MOLECULE
ZINC000174621331
 47 48 1 0 0
SMALL
USER_CHARGES


@<TRIPOS>ATOM
      1 C1         -7.5475    6.0522   49.5980 C.3     1  ZINC000174621331    0.0300
      2 O2         -6.8084    4.8424   49.4180 O.3     1  ZINC000174621331   -0.3800
      3 C3         -7.2790    3.7504   50.2105 C.3     1  ZINC000174621331    0.0500
      4 C4         -6.4196    2.5144   49.9372 C.3     1  ZINC000174621331    0.2400
      5 H5         -6.5648    2.1916   48.9063 H       1  ZINC000174621331    0.1300
      6 N6         -5.0083    2.8438   50.1517 N.am    1  ZINC000174621331   -0.7200
      7 C7         -4.0512    2.1836   49.4700 C.2     1  ZINC000174621331    0.5600
      8 O8         -4.3589    1.3141   48.6784 O.2     1  ZINC000174621331   -0.5300
      9 C9         -2.6270    2.5172   49.6850 C.ar    1  ZINC000174621331   -0.1600
     10 C10        -2.2232    3.1362   50.8688 C.ar    1  ZINC000174621331   -0.0200
     11 C11        -0.8924    3.4444   51.0634 C.ar    1  ZINC000174621331   -0.1100
     12 C12        -0.4545    4.1128   52.3411 C.3     1  ZINC000174621331   -0.1200
     13 C13         0.0408    3.1408   50.0884 C.ar    1  ZINC000174621331    0.0400
     14 C14         1.4927    3.4798   50.3080 C.3     1  ZINC000174621331   -0.1600
     15 C15        -0.3529    2.5266   48.9125 C.ar    1  ZINC000174621331   -0.6800
     16 S16         0.8440    2.1437   47.6773 S.o2    1  ZINC000174621331    2.7000
     17 N17         0.0673    1.2889   46.4904 N.am    1  ZINC000174621331   -1.2500
     18 O18         1.2289    3.3810   47.0943 O.2     1  ZINC000174621331   -0.9500
     19 O19         1.7680    1.2469   48.2784 O.2     1  ZINC000174621331   -0.9600
     20 C20        -1.6795    2.2092   48.7073 C.ar    1  ZINC000174621331    0.0400
     21 C21        -6.8241    1.4045   50.8729 C.2     1  ZINC000174621331   -0.0200
     22 C22        -6.0213    0.4238   51.3237 C.2     1  ZINC000174621331   -0.1900
     23 C23        -6.8068   -0.3921   52.1698 C.2     1  ZINC000174621331   -0.2100
     24 C24        -8.0427    0.1387   52.1856 C.2     1  ZINC000174621331    0.0000
     25 C25        -9.2219   -0.3963   52.9566 C.3     1  ZINC000174621331   -0.0800
     26 O26        -8.0458    1.2301   51.4029 O.3     1  ZINC000174621331   -0.1600
     27 H27        -8.5901    5.8846   49.3279 H       1  ZINC000174621331    0.0400
     28 H28        -7.4878    6.3626   50.6412 H       1  ZINC000174621331    0.0400
     29 H29        -7.1283    6.8321   48.9622 H       1  ZINC000174621331    0.0900
     30 H30        -7.2128    4.0127   51.2663 H       1  ZINC000174621331    0.0700
     31 H31        -8.3163    3.5357   49.9537 H       1  ZINC000174621331    0.0700
     32 H32        -4.7626    3.5369   50.7842 H       1  ZINC000174621331    0.4100
     33 H33        -2.9507    3.3738   51.6308 H       1  ZINC000174621331    0.1400
     34 H34        -0.1985    3.3529   53.0795 H       1  ZINC000174621331    0.0800
     35 H35         0.4175    4.7366   52.1445 H       1  ZINC000174621331    0.0800
     36 H36        -1.2657    4.7324   52.7235 H       1  ZINC000174621331    0.0700
     37 H37         1.9927    2.6405   50.7915 H       1  ZINC000174621331    0.1100
     38 H38         1.9678    3.6820   49.3480 H       1  ZINC000174621331    0.0700
     39 H39         1.5675    4.3623   50.9434 H       1  ZINC000174621331    0.0900
     40 H40        -0.6760    1.6886   46.0123 H       1  ZINC000174621331    0.4200
     41 H41         0.3557    0.3886   46.2734 H       1  ZINC000174621331    0.4200
     42 H42        -1.9854    1.7295   47.7892 H       1  ZINC000174621331    0.1600
     43 H43        -4.9772    0.2860   51.0845 H       1  ZINC000174621331    0.1500
     44 H44        -6.4778   -1.2729   52.7012 H       1  ZINC000174621331    0.1500
     45 H45        -9.2452    0.0585   53.9468 H       1  ZINC000174621331    0.0800
     46 H46       -10.1426   -0.1565   52.4249 H       1  ZINC000174621331    0.0800
     47 H47        -9.1308   -1.4780   53.0556 H       1  ZINC000174621331    0.0900
@<TRIPOS>BOND
     1     1     2    1
     2     1    27    1
     3     1    28    1
     4     1    29    1
     5     2     3    1
     6     3     4    1
     7     3    30    1
     8     3    31    1
     9     4     5    1
    10     4     6    1
    11     4    21    1
    12     6     7   am
    13     6    32    1
    14     7     8    2
    15     7     9    1
    16     9    20   ar
    17     9    10   ar
    18    10    11   ar
    19    10    33    1
    20    11    12    1
    21    11    13   ar
    22    12    34    1
    23    12    35    1
    24    12    36    1
    25    13    14    1
    26    13    15   ar
    27    14    37    1
    28    14    38    1
    29    14    39    1
    30    15    16    1
    31    15    20   ar
    32    16    17   am
    33    16    18    2
    34    16    19    2
    35    17    40    1
    36    17    41    1
    37    20    42    1
    38    21    26    1
    39    21    22    2
    40    22    23    1
    41    22    43    1
    42    23    24    2
    43    23    44    1
    44    24    25    1
    45    24    26    1
    46    25    45    1
    47    25    46    1
    48    25    47    1
@<TRIPOS>SUBSTRUCTURE
     1 ZINC000174621331        1 TEMP              0 ****  ****    0 ROOT


##########                                Name:    ZINC000558052810
##########                DOCK_Rotatable_Bonds:                   9
##########                         Heavy_Atoms:                  30
##########                    Molecular_Weight:             424.524
##########                DOCK_Rotatable_Bonds:                   9
##########                       Formal_Charge:          -0.0200002
##########                     HBond_Acceptors:                   8
##########                        HBond_Donors:                   1
##########                         Heavy_Atoms:                  30
##########                          Grid_Score:          -31.524412
##########                     Grid_vdw_energy:          -29.975237
##########                      Grid_es_energy:           -1.549176
##########           Internal_energy_repulsive:           12.658258

@<TRIPOS>MOLECULE
ZINC000558052810
 54 56 1 0 0
SMALL
USER_CHARGES


@<TRIPOS>ATOM
      1 C1         -4.5862    1.2317   49.6933 C.3     1  ZINC000558052810   -0.1700
      2 C2         -5.9539    1.9011   49.8426 C.3     1  ZINC000558052810    0.1100
      3 N3         -6.6600    1.3192   50.9868 N.am    1  ZINC000558052810   -0.6100
      4 C4         -6.5151   -0.1069   51.2889 C.3     1  ZINC000558052810    0.0700
      5 C5         -7.4428    2.0961   51.7614 C.2     1  ZINC000558052810    0.5600
      6 O6         -7.5629    3.2794   51.5109 O.2     1  ZINC000558052810   -0.5300
      7 C7         -8.1555    1.5089   52.9163 C.ar    1  ZINC000558052810   -0.1100
      8 C8         -7.5749    1.5365   54.1853 C.ar    1  ZINC000558052810   -0.1100
      9 C9         -8.2422    0.9876   55.2617 C.ar    1  ZINC000558052810   -0.1000
     10 C10        -9.4852    0.4090   55.0880 C.ar    1  ZINC000558052810   -0.1300
     11 C11       -10.0718    0.3759   53.8283 C.ar    1  ZINC000558052810    0.1400
     12 N12       -11.3299   -0.2114   53.6578 N.am    1  ZINC000558052810   -0.6600
     13 C13       -12.4455    0.5301   53.8065 C.2     1  ZINC000558052810    0.5600
     14 O14       -12.3584    1.7098   54.0889 O.2     1  ZINC000558052810   -0.4800
     15 C15       -13.7708   -0.0886   53.6269 C.ar    1  ZINC000558052810   -0.1900
     16 C16       -14.3641   -0.1477   52.3607 C.ar    1  ZINC000558052810   -0.0200
     17 C17       -15.6098   -0.7390   52.2453 C.ar    1  ZINC000558052810   -0.1900
     18 C18       -16.2289   -1.2504   53.3720 C.ar    1  ZINC000558052810    0.1500
     19 N19       -15.6544   -1.1851   54.5569 N.ar    1  ZINC000558052810   -0.4900
     20 C20       -14.4604   -0.6358   54.7238 C.ar    1  ZINC000558052810    0.1600
     21 S21       -13.7400   -0.5757   56.3307 S.3     1  ZINC000558052810    0.0600
     22 C22       -13.6688   -2.3441   56.7096 C.3     1  ZINC000558052810   -0.0700
     23 C23       -14.1086   -2.5711   58.1329 C.2     1  ZINC000558052810   -0.2000
     24 C24       -15.3285   -2.9570   58.5774 C.2     1  ZINC000558052810   -0.0100
     25 C25       -16.5438   -3.2511   57.7363 C.3     1  ZINC000558052810   -0.0800
     26 O26       -15.2415   -3.0255   59.9133 O.3     1  ZINC000558052810    0.1000
     27 N27       -14.1349   -2.7313   60.3023 N.2     1  ZINC000558052810   -0.3600
     28 C28       -13.3418   -2.4368   59.3130 C.2     1  ZINC000558052810    0.0300
     29 C29       -11.8953   -2.0248   59.4076 C.3     1  ZINC000558052810   -0.0800
     30 C30        -9.4129    0.9304   52.7421 C.ar    1  ZINC000558052810   -0.0700
     31 H31        -4.0025    1.3914   50.5999 H       1  ZINC000558052810    0.0600
     32 H32        -4.7208    0.1622   49.5315 H       1  ZINC000558052810    0.0600
     33 H33        -4.0609    1.6647   48.8420 H       1  ZINC000558052810    0.0700
     34 H34        -5.8192    2.9705   50.0044 H       1  ZINC000558052810    0.0800
     35 H35        -6.5375    1.7414   48.9359 H       1  ZINC000558052810    0.0800
     36 H36        -5.6247   -0.2605   51.8985 H       1  ZINC000558052810    0.0600
     37 H37        -7.3929   -0.4539   51.8340 H       1  ZINC000558052810    0.0800
     38 H38        -6.4199   -0.6675   50.3590 H       1  ZINC000558052810    0.0700
     39 H39        -6.6034    1.9871   54.3249 H       1  ZINC000558052810    0.1400
     40 H40        -7.7912    1.0100   56.2428 H       1  ZINC000558052810    0.1400
     41 H41       -10.0024   -0.0193   55.9340 H       1  ZINC000558052810    0.1300
     42 H42       -11.3994   -1.1523   53.4326 H       1  ZINC000558052810    0.4100
     43 H43       -13.8620    0.2585   51.4951 H       1  ZINC000558052810    0.1400
     44 H44       -16.0954   -0.8005   51.2826 H       1  ZINC000558052810    0.1500
     45 H45       -17.2012   -1.7113   53.2791 H       1  ZINC000558052810    0.1700
     46 H46       -14.3297   -2.8873   56.0341 H       1  ZINC000558052810    0.1000
     47 H47       -12.6469   -2.7019   56.5836 H       1  ZINC000558052810    0.1000
     48 H48       -16.5506   -4.3066   57.4642 H       1  ZINC000558052810    0.0900
     49 H49       -17.4441   -3.0164   58.3040 H       1  ZINC000558052810    0.0900
     50 H50       -16.5156   -2.6431   56.8320 H       1  ZINC000558052810    0.0900
     51 H51       -11.2616   -2.9108   59.3660 H       1  ZINC000558052810    0.0800
     52 H52       -11.6507   -1.3638   58.5762 H       1  ZINC000558052810    0.0800
     53 H53       -11.7272   -1.5019   60.3492 H       1  ZINC000558052810    0.0800
     54 H54        -9.8670    0.9060   51.7626 H       1  ZINC000558052810    0.1500
@<TRIPOS>BOND
     1     1     2    1
     2     1    31    1
     3     1    32    1
     4     1    33    1
     5     2     3    1
     6     2    34    1
     7     2    35    1
     8     3     4    1
     9     3     5   am
    10     4    36    1
    11     4    37    1
    12     4    38    1
    13     5     6    2
    14     5     7    1
    15     7    30   ar
    16     7     8   ar
    17     8     9   ar
    18     8    39    1
    19     9    10   ar
    20     9    40    1
    21    10    11   ar
    22    10    41    1
    23    11    12    1
    24    11    30   ar
    25    12    13   am
    26    12    42    1
    27    13    14    2
    28    13    15    1
    29    15    20   ar
    30    15    16   ar
    31    16    17   ar
    32    16    43    1
    33    17    18   ar
    34    17    44    1
    35    18    19   ar
    36    18    45    1
    37    19    20   ar
    38    20    21    1
    39    21    22    1
    40    22    23    1
    41    22    46    1
    42    22    47    1
    43    23    28    1
    44    23    24    2
    45    24    25    1
    46    24    26    1
    47    25    48    1
    48    25    49    1
    49    25    50    1
    50    26    27    1
    51    27    28    2
    52    28    29    1
    53    29    51    1
    54    29    52    1
    55    29    53    1
    56    30    54    1
@<TRIPOS>SUBSTRUCTURE
     1 ZINC000558052810        1 TEMP              0 ****  ****    0 ROOT


##########                                Name:    ZINC000499369364
##########                DOCK_Rotatable_Bonds:                   9
##########                         Heavy_Atoms:                  25
##########                    Molecular_Weight:             384.527
##########                DOCK_Rotatable_Bonds:                   9
##########                       Formal_Charge:        -5.88596e-07
##########                     HBond_Acceptors:                  10
##########                        HBond_Donors:                   1
##########                         Heavy_Atoms:                  25
##########                          Grid_Score:          -31.517771
##########                     Grid_vdw_energy:          -30.832066
##########                      Grid_es_energy:           -0.685705
##########           Internal_energy_repulsive:           23.780790

@<TRIPOS>MOLECULE
ZINC000499369364
 49 51 1 0 0
SMALL
USER_CHARGES


@<TRIPOS>ATOM
      1 C1         -5.8583    3.0130   56.8752 C.3     1  ZINC000499369364   -0.1500
      2 C2         -7.3594    3.2980   56.9563 C.3     1  ZINC000499369364   -0.1000
      3 C3         -7.7061    4.4712   56.0376 C.3     1  ZINC000499369364   -0.1500
      4 C4         -8.1385    2.0573   56.5152 C.3     1  ZINC000499369364    0.1500
      5 H5         -9.1995    2.2983   56.4507 H       1  ZINC000499369364    0.0900
      6 C6         -7.6352    1.5996   55.1447 C.3     1  ZINC000499369364   -0.1700
      7 N7         -7.9401    0.9834   57.4918 N.am    1  ZINC000499369364   -0.7200
      8 C8         -8.7403    0.8997   58.5732 C.2     1  ZINC000499369364    0.5100
      9 O9         -9.6237    1.7141   58.7384 O.2     1  ZINC000499369364   -0.5100
     10 C10        -8.5376   -0.2060   59.5768 C.3     1  ZINC000499369364    0.1200
     11 H11        -7.8159   -0.9163   59.1732 H       1  ZINC000499369364    0.1200
     12 C12        -7.9629    0.4020   60.8765 C.3     1  ZINC000499369364   -0.0800
     13 S13        -9.4851    0.5736   61.8996 S.3     1  ZINC000499369364   -0.2400
     14 C14       -10.2947   -0.9097   61.1698 C.3     1  ZINC000499369364    0.1400
     15 N15        -9.8048   -0.8912   59.7805 N.am    1  ZINC000499369364   -0.6000
     16 C16       -10.4803   -1.4702   58.7681 C.2     1  ZINC000499369364    0.5600
     17 O17       -10.0354   -1.4292   57.6405 O.2     1  ZINC000499369364   -0.5000
     18 C18       -11.7884   -2.1685   59.0372 C.3     1  ZINC000499369364   -0.1500
     19 S19       -12.2872   -3.1018   57.5687 S.3     1  ZINC000499369364    0.1300
     20 C20       -13.9731   -3.4225   57.9681 C.2     1  ZINC000499369364    0.2000
     21 N21       -14.4948   -3.4713   59.1747 N.2     1  ZINC000499369364   -0.3400
     22 N22       -15.7517   -3.7271   59.1111 N.2     1  ZINC000499369364   -0.0300
     23 N23       -16.1207   -3.8586   57.8830 N.2     1  ZINC000499369364   -0.0800
     24 N24       -14.9767   -3.6592   57.0906 N.pl3   1  ZINC000499369364   -0.3300
     25 C25       -14.8877   -3.7066   55.6292 C.3     1  ZINC000499369364    0.0500
     26 C26       -15.9987   -3.0211   54.8311 C.3     1  ZINC000499369364   -0.1500
     27 C27       -14.6045   -2.3941   54.8957 C.3     1  ZINC000499369364   -0.1600
     28 H28        -5.3032    3.8969   57.1894 H       1  ZINC000499369364    0.0600
     29 H29        -5.6113    2.1771   57.5297 H       1  ZINC000499369364    0.0600
     30 H30        -5.5910    2.7620   55.8487 H       1  ZINC000499369364    0.0600
     31 H31        -7.6266    3.5490   57.9828 H       1  ZINC000499369364    0.0800
     32 H32        -7.1510    5.3552   56.3518 H       1  ZINC000499369364    0.0600
     33 H33        -7.4389    4.2203   55.0111 H       1  ZINC000499369364    0.0600
     34 H34        -8.7755    4.6742   56.0952 H       1  ZINC000499369364    0.0500
     35 H35        -6.5742    1.3585   55.2092 H       1  ZINC000499369364    0.0600
     36 H36        -8.1902    0.7156   54.8305 H       1  ZINC000499369364    0.0600
     37 H37        -7.7827    2.3985   54.4180 H       1  ZINC000499369364    0.0700
     38 H38        -7.2329    0.3326   57.3603 H       1  ZINC000499369364    0.4000
     39 H39        -7.2507   -0.2773   61.3451 H       1  ZINC000499369364    0.1200
     40 H40        -7.5074    1.3738   60.6861 H       1  ZINC000499369364    0.1300
     41 H41        -9.9741   -1.8167   61.6822 H       1  ZINC000499369364    0.1100
     42 H42       -11.3799   -0.8113   61.1983 H       1  ZINC000499369364    0.1200
     43 H43       -11.6695   -2.8512   59.8785 H       1  ZINC000499369364    0.1300
     44 H44       -12.5530   -1.4288   59.2746 H       1  ZINC000499369364    0.1300
     45 H45       -14.4582   -4.6182   55.2136 H       1  ZINC000499369364    0.1600
     46 H46       -16.3003   -3.4817   53.8904 H       1  ZINC000499369364    0.1200
     47 H47       -16.7957   -2.5348   55.3935 H       1  ZINC000499369364    0.1200
     48 H48       -14.4844   -1.4953   55.5006 H       1  ZINC000499369364    0.1100
     49 H49       -13.9889   -2.4422   53.9974 H       1  ZINC000499369364    0.1200
@<TRIPOS>BOND
     1     1     2    1
     2     1    28    1
     3     1    29    1
     4     1    30    1
     5     2     3    1
     6     2     4    1
     7     2    31    1
     8     3    32    1
     9     3    33    1
    10     3    34    1
    11     4     5    1
    12     4     6    1
    13     4     7    1
    14     6    35    1
    15     6    36    1
    16     6    37    1
    17     7     8   am
    18     7    38    1
    19     8     9    2
    20     8    10    1
    21    10    11    1
    22    10    15    1
    23    10    12    1
    24    12    13    1
    25    12    39    1
    26    12    40    1
    27    13    14    1
    28    14    15    1
    29    14    41    1
    30    14    42    1
    31    15    16   am
    32    16    17    2
    33    16    18    1
    34    18    19    1
    35    18    43    1
    36    18    44    1
    37    19    20    1
    38    20    24    1
    39    20    21    2
    40    21    22    1
    41    22    23    2
    42    23    24    1
    43    24    25    1
    44    25    27    1
    45    25    26    1
    46    25    45    1
    47    26    27    1
    48    26    46    1
    49    26    47    1
    50    27    48    1
    51    27    49    1
@<TRIPOS>SUBSTRUCTURE
     1 ZINC000499369364        1 TEMP              0 ****  ****    0 ROOT


##########                                Name:    ZINC000948289723
##########                DOCK_Rotatable_Bonds:                   6
##########                         Heavy_Atoms:                  24
##########                    Molecular_Weight:             331.415
##########                DOCK_Rotatable_Bonds:                   6
##########                       Formal_Charge:           0.0599999
##########                     HBond_Acceptors:                   6
##########                        HBond_Donors:                   1
##########                         Heavy_Atoms:                  24
##########                          Grid_Score:          -31.476175
##########                     Grid_vdw_energy:          -31.612976
##########                      Grid_es_energy:            0.136801
##########           Internal_energy_repulsive:            7.480529

@<TRIPOS>MOLECULE
ZINC000948289723
 49 52 1 0 0
SMALL
USER_CHARGES


@<TRIPOS>ATOM
      1 C1        -10.6699   -0.3274   54.8339 C.3     1  ZINC000948289723   -0.1400
      2 C2        -10.2793    0.6479   53.7215 C.3     1  ZINC000948289723   -0.1100
      3 C3         -8.8012    1.0701   53.7635 C.3     1  ZINC000948289723   -0.1100
      4 C4         -8.8092    0.9651   52.2292 C.3     1  ZINC000948289723   -0.1400
      5 C5         -7.5529    0.3584   51.6592 C.2     1  ZINC000948289723    0.5400
      6 O6         -7.3280   -0.8238   51.8099 O.2     1  ZINC000948289723   -0.5300
      7 N7         -6.6794    1.1297   50.9821 N.am    1  ZINC000948289723   -0.6200
      8 C8         -6.8270    2.5700   50.7268 C.3     1  ZINC000948289723    0.1100
      9 C9         -5.5782    3.0270   49.9438 C.3     1  ZINC000948289723   -0.1100
     10 H10        -5.7783    3.0403   48.8724 H       1  ZINC000948289723    0.1000
     11 C11        -5.1125    4.4035   50.4226 C.3     1  ZINC000948289723   -0.1400
     12 C12        -4.5309    1.9367   50.2930 C.3     1  ZINC000948289723    0.1400
     13 H13        -4.0559    2.1442   51.2518 H       1  ZINC000948289723    0.1200
     14 N14        -3.5300    1.8106   49.2307 N.am    1  ZINC000948289723   -0.7100
     15 C15        -2.3174    2.3804   49.3762 C.2     1  ZINC000948289723    0.6100
     16 O16        -2.0535    2.9978   50.3897 O.2     1  ZINC000948289723   -0.5000
     17 C17        -1.3102    2.2548   48.3058 C.2     1  ZINC000948289723   -0.0900
     18 C18        -0.0141    2.6918   48.3408 C.2     1  ZINC000948289723   -0.1400
     19 C19         0.5008    2.3243   47.0777 C.2     1  ZINC000948289723    0.0500
     20 C20         1.8995    2.5646   46.5706 C.3     1  ZINC000948289723   -0.0900
     21 C21         2.9741    1.5445   46.9520 C.3     1  ZINC000948289723   -0.1600
     22 C22         2.4449    1.5979   45.5175 C.3     1  ZINC000948289723   -0.1600
     23 N23        -0.4684    1.7375   46.4378 N.2     1  ZINC000948289723   -0.3300
     24 O24        -1.4788    1.6819   47.0991 O.3     1  ZINC000948289723    0.1200
     25 C25        -5.4146    0.6700   50.3800 C.3     1  ZINC000948289723    0.0900
     26 C26        -9.9636   -0.0392   52.3825 C.3     1  ZINC000948289723   -0.1200
     27 H27        -9.8503   -1.0238   55.0109 H       1  ZINC000948289723    0.0600
     28 H28       -10.8783    0.2285   55.7479 H       1  ZINC000948289723    0.0600
     29 H29       -11.5596   -0.8819   54.5350 H       1  ZINC000948289723    0.0600
     30 H30       -10.9715    1.4850   53.6302 H       1  ZINC000948289723    0.0900
     31 H31        -8.6472    2.0848   54.1309 H       1  ZINC000948289723    0.0700
     32 H32        -8.1522    0.3404   54.2478 H       1  ZINC000948289723    0.1000
     33 H33        -9.0968    1.8902   51.7298 H       1  ZINC000948289723    0.1100
     34 H34        -7.7234    2.7515   50.1338 H       1  ZINC000948289723    0.0800
     35 H35        -6.8899    3.1095   51.6719 H       1  ZINC000948289723    0.0800
     36 H36        -4.8895    4.3609   51.4886 H       1  ZINC000948289723    0.0600
     37 H37        -4.2161    4.6946   49.8751 H       1  ZINC000948289723    0.0600
     38 H38        -5.9004    5.1355   50.2452 H       1  ZINC000948289723    0.0700
     39 H39        -3.7401    1.3169   48.4226 H       1  ZINC000948289723    0.4100
     40 H40         0.4961    3.1996   49.1459 H       1  ZINC000948289723    0.1800
     41 H41         2.2002    3.6098   46.4981 H       1  ZINC000948289723    0.1300
     42 H42         3.9822    1.9185   47.1307 H       1  ZINC000948289723    0.1100
     43 H43         2.6695    0.6998   47.5698 H       1  ZINC000948289723    0.1000
     44 H44         1.7920    0.7882   45.1915 H       1  ZINC000948289723    0.1000
     45 H45         3.1047    2.0070   44.7524 H       1  ZINC000948289723    0.1100
     46 H46        -4.9403   -0.0807   51.0122 H       1  ZINC000948289723    0.0900
     47 H47        -5.5990    0.2671   49.3843 H       1  ZINC000948289723    0.0800
     48 H48        -9.6324   -1.0722   52.4892 H       1  ZINC000948289723    0.0900
     49 H49       -10.7479    0.0797   51.6351 H       1  ZINC000948289723    0.0800
@<TRIPOS>BOND
     1     1     2    1
     2     1    27    1
     3     1    28    1
     4     1    29    1
     5     2    26    1
     6     2     3    1
     7     2    30    1
     8     3     4    1
     9     3    31    1
    10     3    32    1
    11     4     5    1
    12     4    26    1
    13     4    33    1
    14     5     6    2
    15     5     7   am
    16     7    25    1
    17     7     8    1
    18     8     9    1
    19     8    34    1
    20     8    35    1
    21     9    10    1
    22     9    11    1
    23     9    12    1
    24    11    36    1
    25    11    37    1
    26    11    38    1
    27    12    13    1
    28    12    14    1
    29    12    25    1
    30    14    15   am
    31    14    39    1
    32    15    16    2
    33    15    17    1
    34    17    24    1
    35    17    18    2
    36    18    19    1
    37    18    40    1
    38    19    20    1
    39    19    23    2
    40    20    22    1
    41    20    21    1
    42    20    41    1
    43    21    22    1
    44    21    42    1
    45    21    43    1
    46    22    44    1
    47    22    45    1
    48    23    24    1
    49    25    46    1
    50    25    47    1
    51    26    48    1
    52    26    49    1
@<TRIPOS>SUBSTRUCTURE
     1 ZINC000948289723        1 TEMP              0 ****  ****    0 ROOT


##########                                Name:    ZINC000045927156
##########                DOCK_Rotatable_Bonds:                   7
##########                         Heavy_Atoms:                  30
##########                    Molecular_Weight:             418.522
##########                DOCK_Rotatable_Bonds:                   7
##########                       Formal_Charge:           0.0200001
##########                     HBond_Acceptors:                   8
##########                        HBond_Donors:                   1
##########                         Heavy_Atoms:                  30
##########                          Grid_Score:          -31.453987
##########                     Grid_vdw_energy:          -30.982679
##########                      Grid_es_energy:           -0.471308
##########           Internal_energy_repulsive:           16.919006

@<TRIPOS>MOLECULE
ZINC000045927156
 52 56 1 0 0
SMALL
USER_CHARGES


@<TRIPOS>ATOM
      1 O1         -6.3257    4.0020   49.3771 O.2     1  ZINC000045927156   -0.5800
      2 C2         -6.7431    3.4963   50.4011 C.2     1  ZINC000045927156    0.7300
      3 N3         -7.4620    4.2323   51.2717 N.am    1  ZINC000045927156   -0.7400
      4 C4         -7.7355    5.6431   50.9871 C.3     1  ZINC000045927156    0.1700
      5 C5         -9.0906    6.0123   51.5334 C.ar    1  ZINC000045927156   -0.0700
      6 C6         -9.1941    6.6323   52.7642 C.ar    1  ZINC000045927156   -0.1000
      7 C7        -10.4372    6.9709   53.2654 C.ar    1  ZINC000045927156   -0.1100
      8 C8        -11.5766    6.6898   52.5353 C.ar    1  ZINC000045927156   -0.1100
      9 C9        -11.4731    6.0703   51.3036 C.ar    1  ZINC000045927156   -0.1000
     10 C10       -10.2301    5.7357   50.8006 C.ar    1  ZINC000045927156   -0.1000
     11 C11       -10.1171    5.0606   49.4580 C.3     1  ZINC000045927156    0.1700
     12 N12       -11.2839    4.2007   49.2443 N.pl3   1  ZINC000045927156   -0.3800
     13 C13       -11.8690    3.9142   48.0684 C.2     1  ZINC000045927156    0.2500
     14 N14       -12.8772    3.1136   48.3010 N.2     1  ZINC000045927156   -0.5400
     15 C15       -12.9669    2.8675   49.6075 C.2     1  ZINC000045927156    0.2000
     16 N16       -12.0095    3.5069   50.2264 N.2     1  ZINC000045927156   -0.3100
     17 N17        -6.4915    2.1984   50.6628 N.am    1  ZINC000045927156   -0.6200
     18 C18        -6.9391    1.4604   51.8581 C.3     1  ZINC000045927156    0.1000
     19 C19        -6.9639   -0.0254   51.4207 C.3     1  ZINC000045927156   -0.1300
     20 C20        -5.7230   -0.0974   50.4920 C.3     1  ZINC000045927156   -0.1200
     21 C21        -5.7307    1.2821   49.8007 C.3     1  ZINC000045927156    0.2300
     22 H22        -6.2065    1.2042   48.8231 H       1  ZINC000045927156    0.1000
     23 C23        -4.3187    1.7851   49.6446 C.2     1  ZINC000045927156    0.0900
     24 N24        -3.6220    1.6549   48.5796 N.2     1  ZINC000045927156   -0.4500
     25 C25        -2.3714    2.1544   48.5811 C.ar    1  ZINC000045927156    0.0800
     26 C26        -1.3996    2.1511   47.5604 C.ar    1  ZINC000045927156   -0.0700
     27 C27        -0.1786    2.7176   47.7687 C.ar    1  ZINC000045927156   -0.1100
     28 C28         0.1321    3.3079   48.9854 C.ar    1  ZINC000045927156   -0.1000
     29 C29        -0.7978    3.3260   50.0008 C.ar    1  ZINC000045927156   -0.0700
     30 C30        -2.0517    2.7515   49.8058 C.ar    1  ZINC000045927156   -0.1800
     31 S31        -3.4517    2.6061   50.8638 S.3     1  ZINC000045927156    0.1200
     32 H32        -7.7984    3.8278   52.0866 H       1  ZINC000045927156    0.3900
     33 H33        -6.9726    6.2632   51.4579 H       1  ZINC000045927156    0.1000
     34 H34        -7.7216    5.8057   49.9094 H       1  ZINC000045927156    0.0700
     35 H35        -8.3037    6.8520   53.3348 H       1  ZINC000045927156    0.1300
     36 H36       -10.5182    7.4548   54.2275 H       1  ZINC000045927156    0.1300
     37 H37       -12.5479    6.9537   52.9271 H       1  ZINC000045927156    0.1300
     38 H38       -12.3635    5.8503   50.7332 H       1  ZINC000045927156    0.1300
     39 H39       -10.0743    5.8163   48.6738 H       1  ZINC000045927156    0.1100
     40 H40        -9.2105    4.4563   49.4303 H       1  ZINC000045927156    0.1000
     41 H41       -11.5609    4.2814   47.1006 H       1  ZINC000045927156    0.2200
     42 H42       -13.7078    2.2383   50.0781 H       1  ZINC000045927156    0.2200
     43 H43        -6.2348    1.6029   52.6777 H       1  ZINC000045927156    0.0700
     44 H44        -7.9368    1.7857   52.1531 H       1  ZINC000045927156    0.0800
     45 H45        -6.8486   -0.6873   52.2789 H       1  ZINC000045927156    0.0900
     46 H46        -7.8768   -0.2558   50.8714 H       1  ZINC000045927156    0.0800
     47 H47        -4.8125   -0.2356   51.0751 H       1  ZINC000045927156    0.0900
     48 H48        -5.8366   -0.8949   49.7577 H       1  ZINC000045927156    0.0900
     49 H49        -1.6244    1.6960   46.6071 H       1  ZINC000045927156    0.1300
     50 H50         0.5567    2.7070   46.9777 H       1  ZINC000045927156    0.1400
     51 H51         1.1044    3.7532   49.1363 H       1  ZINC000045927156    0.1400
     52 H52        -0.5550    3.7850   50.9478 H       1  ZINC000045927156    0.1300
@<TRIPOS>BOND
     1     1     2    2
     2     2     3   am
     3     2    17   am
     4     3     4    1
     5     3    32    1
     6     4     5    1
     7     4    33    1
     8     4    34    1
     9     5    10   ar
    10     5     6   ar
    11     6     7   ar
    12     6    35    1
    13     7     8   ar
    14     7    36    1
    15     8     9   ar
    16     8    37    1
    17     9    10   ar
    18     9    38    1
    19    10    11    1
    20    11    12    1
    21    11    39    1
    22    11    40    1
    23    12    16    1
    24    12    13    1
    25    13    14    2
    26    13    41    1
    27    14    15    1
    28    15    16    2
    29    15    42    1
    30    17    21    1
    31    17    18    1
    32    18    19    1
    33    18    43    1
    34    18    44    1
    35    19    20    1
    36    19    45    1
    37    19    46    1
    38    20    21    1
    39    20    47    1
    40    20    48    1
    41    21    22    1
    42    21    23    1
    43    23    31    1
    44    23    24    2
    45    24    25    1
    46    25    30   ar
    47    25    26   ar
    48    26    27   ar
    49    26    49    1
    50    27    28   ar
    51    27    50    1
    52    28    29   ar
    53    28    51    1
    54    29    30   ar
    55    29    52    1
    56    30    31    1
@<TRIPOS>SUBSTRUCTURE
     1 ZINC000045927156        1 TEMP              0 ****  ****    0 ROOT


##########                                Name:    ZINC000114394234
##########                DOCK_Rotatable_Bonds:                   9
##########                         Heavy_Atoms:                  27
##########                    Molecular_Weight:             365.392
##########                DOCK_Rotatable_Bonds:                   9
##########                       Formal_Charge:           0.0300002
##########                     HBond_Acceptors:                   8
##########                        HBond_Donors:                   3
##########                         Heavy_Atoms:                  27
##########                          Grid_Score:          -31.408825
##########                     Grid_vdw_energy:          -28.893360
##########                      Grid_es_energy:           -2.515465
##########           Internal_energy_repulsive:           10.583611

@<TRIPOS>MOLECULE
ZINC000114394234
 46 48 1 0 0
SMALL
USER_CHARGES


@<TRIPOS>ATOM
      1 C1         -8.4767    2.5896   51.4401 C.3     1  ZINC000114394234   -0.1600
      2 C2         -7.6493    1.3214   51.6589 C.3     1  ZINC000114394234    0.1300
      3 H3         -7.6775    0.7092   50.7574 H       1  ZINC000114394234    0.1200
      4 N4         -6.2626    1.6884   51.9567 N.am    1  ZINC000114394234   -0.7100
      5 C5         -5.3409    1.6939   50.9734 C.2     1  ZINC000114394234    0.5200
      6 O6         -5.6591    1.3935   49.8422 O.2     1  ZINC000114394234   -0.5100
      7 C7         -3.9149    2.0731   51.2793 C.3     1  ZINC000114394234    0.0400
      8 O8         -3.2278    2.3653   50.0609 O.3     1  ZINC000114394234   -0.2900
      9 C9         -1.9425    2.7945   50.1651 C.ar    1  ZINC000114394234    0.1300
     10 C10        -1.1894    3.0168   49.0213 C.ar    1  ZINC000114394234   -0.2100
     11 C11         0.1168    3.4535   49.1299 C.ar    1  ZINC000114394234   -0.0800
     12 C12         0.6736    3.6687   50.3770 C.ar    1  ZINC000114394234   -0.1600
     13 C13        -0.0747    3.4473   51.5184 C.ar    1  ZINC000114394234   -0.0800
     14 C14        -1.3833    3.0165   51.4151 C.ar    1  ZINC000114394234   -0.1500
     15 C15        -8.2217    0.5412   52.8141 C.2     1  ZINC000114394234    0.5100
     16 O16        -8.0386   -0.6557   52.8875 O.2     1  ZINC000114394234   -0.5100
     17 N17        -8.9371    1.1730   53.7655 N.am    1  ZINC000114394234   -0.6700
     18 C18        -9.4686    0.4484   54.8382 C.ar    1  ZINC000114394234    0.1300
     19 C19       -10.6314   -0.2925   54.6679 C.ar    1  ZINC000114394234   -0.1200
     20 C20       -11.1593   -1.0095   55.7252 C.ar    1  ZINC000114394234   -0.1000
     21 C21       -10.5346   -0.9930   56.9560 C.ar    1  ZINC000114394234   -0.0900
     22 C22        -9.3679   -0.2520   57.1360 C.ar    1  ZINC000114394234    0.0000
     23 C23        -8.6952   -0.2328   58.4588 C.2     1  ZINC000114394234    0.2700
     24 N24        -8.0915   -1.2537   59.0265 N.2     1  ZINC000114394234   -0.3000
     25 N25        -7.5989   -0.7968   60.2597 N.pl3   1  ZINC000114394234   -0.4800
     26 C26        -7.9472    0.4991   60.3542 C.2     1  ZINC000114394234    0.2700
     27 N27        -8.5976    0.8292   59.2698 N.2     1  ZINC000114394234   -0.5300
     28 C28        -8.8317    0.4650   56.0701 C.ar    1  ZINC000114394234   -0.0800
     29 H29        -8.4486    3.2018   52.3415 H       1  ZINC000114394234    0.0700
     30 H30        -8.0628    3.1540   50.6045 H       1  ZINC000114394234    0.0800
     31 H31        -9.5085    2.3165   51.2185 H       1  ZINC000114394234    0.0800
     32 H32        -6.0078    1.9274   52.8616 H       1  ZINC000114394234    0.4100
     33 H33        -3.9029    2.9526   51.9231 H       1  ZINC000114394234    0.1000
     34 H34        -3.4195    1.2451   51.7863 H       1  ZINC000114394234    0.1000
     35 H35        -1.6237    2.8481   48.0469 H       1  ZINC000114394234    0.1300
     36 H36         0.7034    3.6267   48.2398 H       1  ZINC000114394234    0.1300
     37 H37         1.6950    4.0098   50.4598 H       1  ZINC000114394234    0.1300
     38 H38         0.3626    3.6158   52.4914 H       1  ZINC000114394234    0.1300
     39 H39        -1.9674    2.8439   52.3069 H       1  ZINC000114394234    0.1300
     40 H40        -9.0835    2.1301   53.7068 H       1  ZINC000114394234    0.4200
     41 H41       -11.1243   -0.3082   53.7071 H       1  ZINC000114394234    0.1300
     42 H42       -12.0635   -1.5841   55.5879 H       1  ZINC000114394234    0.1400
     43 H43       -10.9502   -1.5541   57.7800 H       1  ZINC000114394234    0.1400
     44 H44        -7.1049   -1.3141   60.9148 H       1  ZINC000114394234    0.4400
     45 H45        -7.7234    1.1556   61.1821 H       1  ZINC000114394234    0.2300
     46 H46        -7.9279    1.0406   56.2046 H       1  ZINC000114394234    0.1500
@<TRIPOS>BOND
     1     1     2    1
     2     1    29    1
     3     1    30    1
     4     1    31    1
     5     2     3    1
     6     2     4    1
     7     2    15    1
     8     4     5   am
     9     4    32    1
    10     5     6    2
    11     5     7    1
    12     7     8    1
    13     7    33    1
    14     7    34    1
    15     8     9    1
    16     9    14   ar
    17     9    10   ar
    18    10    11   ar
    19    10    35    1
    20    11    12   ar
    21    11    36    1
    22    12    13   ar
    23    12    37    1
    24    13    14   ar
    25    13    38    1
    26    14    39    1
    27    15    16    2
    28    15    17   am
    29    17    18    1
    30    17    40    1
    31    18    28   ar
    32    18    19   ar
    33    19    20   ar
    34    19    41    1
    35    20    21   ar
    36    20    42    1
    37    21    22   ar
    38    21    43    1
    39    22    23    1
    40    22    28   ar
    41    23    27    1
    42    23    24    2
    43    24    25    1
    44    25    26    1
    45    25    44    1
    46    26    27    2
    47    26    45    1
    48    28    46    1
@<TRIPOS>SUBSTRUCTURE
     1 ZINC000114394234        1 TEMP              0 ****  ****    0 ROOT


##########                                Name:    ZINC000062882109
##########                DOCK_Rotatable_Bonds:                   8
##########                         Heavy_Atoms:                  31
##########                    Molecular_Weight:             424.497
##########                DOCK_Rotatable_Bonds:                   8
##########                       Formal_Charge:           0.0299993
##########                     HBond_Acceptors:                   7
##########                        HBond_Donors:                   1
##########                         Heavy_Atoms:                  31
##########                          Grid_Score:          -31.383442
##########                     Grid_vdw_energy:          -31.069555
##########                      Grid_es_energy:           -0.313886
##########           Internal_energy_repulsive:          191.601624

@<TRIPOS>MOLECULE
ZINC000062882109
 59 61 1 0 0
SMALL
USER_CHARGES


@<TRIPOS>ATOM
      1 C1        -11.7555    1.7941   59.4325 C.3     1  ZINC000062882109   -0.2000
      2 C2        -11.8550    0.3287   59.7697 C.2     1  ZINC000062882109    0.3900
      3 O3        -12.2769   -0.0170   60.8526 O.2     1  ZINC000062882109   -0.4500
      4 C4        -11.4401   -0.6830   58.7844 C.ar    1  ZINC000062882109   -0.1300
      5 C5        -11.5322   -2.0437   59.0939 C.ar    1  ZINC000062882109   -0.1100
      6 C6        -11.1422   -2.9881   58.1674 C.ar    1  ZINC000062882109   -0.0900
      7 C7        -10.6600   -2.5947   56.9324 C.ar    1  ZINC000062882109   -0.1800
      8 C8        -10.5641   -1.2458   56.6151 C.ar    1  ZINC000062882109    0.1200
      9 O9        -10.0892   -0.8664   55.3994 O.3     1  ZINC000062882109   -0.2800
     10 C10       -10.1929    0.5193   55.0662 C.3     1  ZINC000062882109    0.0700
     11 H11        -9.8695    1.1223   55.9146 H       1  ZINC000062882109    0.1000
     12 C12       -11.6466    0.8547   54.7266 C.3     1  ZINC000062882109   -0.1800
     13 C13        -9.3176    0.8165   53.8759 C.2     1  ZINC000062882109    0.5200
     14 O14        -9.6087    1.7185   53.1192 O.2     1  ZINC000062882109   -0.4900
     15 N15        -8.2114    0.0798   53.6523 N.am    1  ZINC000062882109   -0.6600
     16 C16        -7.3976    0.3560   52.5457 C.ar    1  ZINC000062882109    0.1400
     17 C17        -7.4965   -0.4205   51.3992 C.ar    1  ZINC000062882109   -0.1000
     18 C18        -6.6945   -0.1524   50.3064 C.ar    1  ZINC000062882109   -0.1100
     19 C19        -5.7859    0.8945   50.3494 C.ar    1  ZINC000062882109    0.0800
     20 O20        -4.9961    1.1428   49.2706 O.3     1  ZINC000062882109   -0.3100
     21 C21        -4.4088    2.4414   49.1601 C.3     1  ZINC000062882109    0.0500
     22 C22        -3.7379    2.7963   50.4946 C.3     1  ZINC000062882109    0.0400
     23 N23        -4.7723    2.7405   51.5416 N.am    1  ZINC000062882109   -0.5500
     24 C24        -4.8380    3.6780   52.5077 C.2     1  ZINC000062882109    0.5300
     25 O25        -5.6986    3.6116   53.3597 O.2     1  ZINC000062882109   -0.5100
     26 C26        -3.8420    4.8088   52.5291 C.3     1  ZINC000062882109   -0.0800
     27 C27        -4.0357    5.6348   53.8024 C.3     1  ZINC000062882109   -0.1300
     28 C28        -2.4225    4.2387   52.5021 C.3     1  ZINC000062882109   -0.1600
     29 C29        -4.0568    5.7009   51.3048 C.3     1  ZINC000062882109   -0.1500
     30 C30        -5.6890    1.6759   51.4981 C.ar    1  ZINC000062882109    0.1000
     31 C31        -6.4951    1.4103   52.5923 C.ar    1  ZINC000062882109   -0.1400
     32 C32       -10.9578   -0.2881   57.5332 C.ar    1  ZINC000062882109   -0.0900
     33 H33       -12.1052    2.3861   60.2783 H       1  ZINC000062882109    0.0900
     34 H34       -10.7177    2.0475   59.2159 H       1  ZINC000062882109    0.1000
     35 H35       -12.3717    2.0086   58.5593 H       1  ZINC000062882109    0.1000
     36 H36       -11.9079   -2.3546   60.0574 H       1  ZINC000062882109    0.1400
     37 H37       -11.2132   -4.0387   58.4073 H       1  ZINC000062882109    0.1300
     38 H38       -10.3564   -3.3394   56.2116 H       1  ZINC000062882109    0.1300
     39 H39       -12.2796    0.6397   55.5876 H       1  ZINC000062882109    0.0800
     40 H40       -11.7257    1.9118   54.4724 H       1  ZINC000062882109    0.0800
     41 H41       -11.9700    0.2518   53.8782 H       1  ZINC000062882109    0.0800
     42 H42        -7.9786   -0.6416   54.2574 H       1  ZINC000062882109    0.4100
     43 H43        -8.2024   -1.2369   51.3613 H       1  ZINC000062882109    0.1400
     44 H44        -6.7750   -0.7596   49.4169 H       1  ZINC000062882109    0.1400
     45 H45        -3.6628    2.4385   48.3655 H       1  ZINC000062882109    0.1300
     46 H46        -5.1831    3.1745   48.9341 H       1  ZINC000062882109    0.0700
     47 H47        -2.9493    2.0768   50.7150 H       1  ZINC000062882109    0.0900
     48 H48        -3.3186    3.8012   50.4421 H       1  ZINC000062882109    0.1300
     49 H49        -3.8827    4.9993   54.6746 H       1  ZINC000062882109    0.0600
     50 H50        -3.3153    6.4527   53.8179 H       1  ZINC000062882109    0.0700
     51 H51        -5.0470    6.0411   53.8216 H       1  ZINC000062882109    0.0700
     52 H52        -2.2845    3.6502   51.5951 H       1  ZINC000062882109    0.0700
     53 H53        -1.7021    5.0565   52.5177 H       1  ZINC000062882109    0.0800
     54 H54        -2.2695    3.6032   53.3743 H       1  ZINC000062882109    0.0600
     55 H55        -4.9847    6.2607   51.4214 H       1  ZINC000062882109    0.0700
     56 H56        -3.2225    6.3960   51.2110 H       1  ZINC000062882109    0.0800
     57 H57        -4.1160    5.0815   50.4099 H       1  ZINC000062882109    0.0700
     58 H58        -6.4188    2.0187   53.4814 H       1  ZINC000062882109    0.1800
     59 H59       -10.8840    0.7610   57.2872 H       1  ZINC000062882109    0.1400
@<TRIPOS>BOND
     1     1     2    1
     2     1    33    1
     3     1    34    1
     4     1    35    1
     5     2     3    2
     6     2     4    1
     7     4    32   ar
     8     4     5   ar
     9     5     6   ar
    10     5    36    1
    11     6     7   ar
    12     6    37    1
    13     7     8   ar
    14     7    38    1
    15     8     9    1
    16     8    32   ar
    17     9    10    1
    18    10    11    1
    19    10    12    1
    20    10    13    1
    21    12    39    1
    22    12    40    1
    23    12    41    1
    24    13    14    2
    25    13    15   am
    26    15    16    1
    27    15    42    1
    28    16    31   ar
    29    16    17   ar
    30    17    18   ar
    31    17    43    1
    32    18    19   ar
    33    18    44    1
    34    19    30   ar
    35    19    20    1
    36    20    21    1
    37    21    22    1
    38    21    45    1
    39    21    46    1
    40    22    23    1
    41    22    47    1
    42    22    48    1
    43    23    24   am
    44    23    30    1
    45    24    25    2
    46    24    26    1
    47    26    27    1
    48    26    28    1
    49    26    29    1
    50    27    49    1
    51    27    50    1
    52    27    51    1
    53    28    52    1
    54    28    53    1
    55    28    54    1
    56    29    55    1
    57    29    56    1
    58    29    57    1
    59    30    31   ar
    60    31    58    1
    61    32    59    1
@<TRIPOS>SUBSTRUCTURE
     1 ZINC000062882109        1 TEMP              0 ****  ****    0 ROOT


##########                                Name:    ZINC000945148121
##########                DOCK_Rotatable_Bonds:                   6
##########                         Heavy_Atoms:                  24
##########                    Molecular_Weight:             332.446
##########                DOCK_Rotatable_Bonds:                   6
##########                       Formal_Charge:           0.0100009
##########                     HBond_Acceptors:                   6
##########                        HBond_Donors:                   2
##########                         Heavy_Atoms:                  24
##########                          Grid_Score:          -31.358025
##########                     Grid_vdw_energy:          -28.302696
##########                      Grid_es_energy:           -3.055328
##########           Internal_energy_repulsive:           18.634136

@<TRIPOS>MOLECULE
ZINC000945148121
 52 54 1 0 0
SMALL
USER_CHARGES


@<TRIPOS>ATOM
      1 O1          0.9356    5.4812   53.4400 O.2     1  ZINC000945148121   -0.5100
      2 C2          1.4537    4.3845   53.4405 C.2     1  ZINC000945148121    0.5200
      3 C3          2.6206    4.1029   54.3517 C.3     1  ZINC000945148121   -0.0500
      4 C4          2.1323    3.3940   55.5887 C.2     1  ZINC000945148121    0.0100
      5 C5          0.9030    3.4997   56.1282 C.2     1  ZINC000945148121   -0.0500
      6 N6          0.8853    2.6938   57.2344 N.pl3   1  ZINC000945148121   -0.5700
      7 C7          2.1053    2.1230   57.3324 C.2     1  ZINC000945148121    0.1800
      8 N8          2.8442    2.5426   56.3419 N.2     1  ZINC000945148121   -0.4700
      9 N9          0.9824    3.4161   52.6303 N.am    1  ZINC000945148121   -0.7300
     10 C10        -0.1519    3.6899   51.7446 C.3     1  ZINC000945148121    0.1500
     11 C11        -0.0403    2.8210   50.4897 C.3     1  ZINC000945148121   -0.1400
     12 C12        -1.2091    3.1349   49.5504 C.3     1  ZINC000945148121    0.1100
     13 N13        -2.4678    2.9683   50.2897 N.am    1  ZINC000945148121   -0.6100
     14 C14        -3.4431    2.1691   49.8138 C.2     1  ZINC000945148121    0.5200
     15 O15        -3.2857    1.5780   48.7666 O.2     1  ZINC000945148121   -0.5400
     16 C16        -4.7293    2.0100   50.5829 C.3     1  ZINC000945148121   -0.1000
     17 C17        -5.6149    3.2018   50.3391 C.3     1  ZINC000945148121   -0.1200
     18 C18        -6.4588    3.5716   51.5738 C.3     1  ZINC000945148121   -0.1200
     19 C19        -7.0404    2.3385   52.2912 C.3     1  ZINC000945148121   -0.1200
     20 C20        -7.5619    1.3056   51.3293 C.3     1  ZINC000945148121   -0.1200
     21 C21        -6.4473    0.2718   51.0687 C.3     1  ZINC000945148121   -0.1200
     22 C22        -5.4676    0.7442   50.1015 C.3     1  ZINC000945148121   -0.1000
     23 C23        -2.6429    3.6891   51.5581 C.3     1  ZINC000945148121    0.1100
     24 C24        -1.4581    3.3689   52.4747 C.3     1  ZINC000945148121   -0.1400
     25 H25         3.3428    3.4724   53.8329 H       1  ZINC000945148121    0.1000
     26 H26         3.0955    5.0422   54.6348 H       1  ZINC000945148121    0.1000
     27 H27         0.0879    4.1046   55.7592 H       1  ZINC000945148121    0.1800
     28 H28         0.1363    2.5579   57.8356 H       1  ZINC000945148121    0.4200
     29 H29         2.4165    1.4308   58.1008 H       1  ZINC000945148121    0.2100
     30 H30         1.3943    2.5379   52.6336 H       1  ZINC000945148121    0.4000
     31 H31        -0.1444    4.7419   51.4594 H       1  ZINC000945148121    0.0900
     32 H32         0.9010    3.0334   49.9827 H       1  ZINC000945148121    0.0800
     33 H33        -0.0729    1.7687   50.7717 H       1  ZINC000945148121    0.0700
     34 H34        -1.1270    4.1624   49.1957 H       1  ZINC000945148121    0.0700
     35 H35        -1.1902    2.4507   48.7022 H       1  ZINC000945148121    0.1000
     36 H36        -4.5110    1.9240   51.6474 H       1  ZINC000945148121    0.1000
     37 H37        -4.9920    4.0547   50.0692 H       1  ZINC000945148121    0.0700
     38 H38        -6.2844    2.9796   49.5081 H       1  ZINC000945148121    0.0700
     39 H39        -5.8327    4.1235   52.2751 H       1  ZINC000945148121    0.0600
     40 H40        -7.2803    4.2147   51.2584 H       1  ZINC000945148121    0.0700
     41 H41        -6.2607    1.8871   52.9048 H       1  ZINC000945148121    0.0600
     42 H42        -7.8553    2.6595   52.9399 H       1  ZINC000945148121    0.0600
     43 H43        -8.4295    0.8073   51.7619 H       1  ZINC000945148121    0.0600
     44 H44        -7.8419    1.7863   50.3920 H       1  ZINC000945148121    0.0700
     45 H45        -5.9395    0.0557   52.0086 H       1  ZINC000945148121    0.0600
     46 H46        -6.8985   -0.6470   50.6941 H       1  ZINC000945148121    0.0600
     47 H47        -5.9765    0.9675   49.1639 H       1  ZINC000945148121    0.0700
     48 H48        -4.7368   -0.0451   49.9250 H       1  ZINC000945148121    0.0700
     49 H49        -2.6778    4.7617   51.3670 H       1  ZINC000945148121    0.0700
     50 H50        -3.5701    3.3704   52.0344 H       1  ZINC000945148121    0.1000
     51 H51        -1.4773    2.3114   52.7381 H       1  ZINC000945148121    0.0700
     52 H52        -1.5259    3.9713   53.3807 H       1  ZINC000945148121    0.0800
@<TRIPOS>BOND
     1     1     2    2
     2     2     3    1
     3     2     9   am
     4     3     4    1
     5     3    25    1
     6     3    26    1
     7     4     8    1
     8     4     5    2
     9     5     6    1
    10     5    27    1
    11     6     7    1
    12     6    28    1
    13     7     8    2
    14     7    29    1
    15     9    10    1
    16     9    30    1
    17    10    24    1
    18    10    11    1
    19    10    31    1
    20    11    12    1
    21    11    32    1
    22    11    33    1
    23    12    13    1
    24    12    34    1
    25    12    35    1
    26    13    14   am
    27    13    23    1
    28    14    15    2
    29    14    16    1
    30    16    22    1
    31    16    17    1
    32    16    36    1
    33    17    18    1
    34    17    37    1
    35    17    38    1
    36    18    19    1
    37    18    39    1
    38    18    40    1
    39    19    20    1
    40    19    41    1
    41    19    42    1
    42    20    21    1
    43    20    43    1
    44    20    44    1
    45    21    22    1
    46    21    45    1
    47    21    46    1
    48    22    47    1
    49    22    48    1
    50    23    24    1
    51    23    49    1
    52    23    50    1
    53    24    51    1
    54    24    52    1
@<TRIPOS>SUBSTRUCTURE
     1 ZINC000945148121        1 TEMP              0 ****  ****    0 ROOT


##########                                Name:    ZINC000949401225
##########                DOCK_Rotatable_Bonds:                   7
##########                         Heavy_Atoms:                  24
##########                    Molecular_Weight:             332.403
##########                DOCK_Rotatable_Bonds:                   7
##########                       Formal_Charge:                0.03
##########                     HBond_Acceptors:                   7
##########                        HBond_Donors:                   1
##########                         Heavy_Atoms:                  24
##########                          Grid_Score:          -31.347853
##########                     Grid_vdw_energy:          -28.935678
##########                      Grid_es_energy:           -2.412174
##########           Internal_energy_repulsive:            8.487959

@<TRIPOS>MOLECULE
ZINC000949401225
 48 50 1 0 0
SMALL
USER_CHARGES


@<TRIPOS>ATOM
      1 C1         -8.5636   -0.3000   63.2079 C.3     1  ZINC000949401225    0.0700
      2 N2         -8.4038    0.5727   62.0422 N.pl3   1  ZINC000949401225   -0.4500
      3 C3         -8.3662    1.9359   62.0880 C.2     1  ZINC000949401225   -0.0100
      4 C4         -8.2095    2.4087   60.8388 C.2     1  ZINC000949401225   -0.1700
      5 C5         -8.1463    1.2366   59.9590 C.2     1  ZINC000949401225   -0.2400
      6 C6         -7.9801    1.2360   58.4958 C.2     1  ZINC000949401225    0.5900
      7 O7         -7.9522    0.1833   57.8873 O.2     1  ZINC000949401225   -0.5500
      8 N8         -7.8589    2.4021   57.8310 N.am    1  ZINC000949401225   -0.7300
      9 C9         -7.6917    2.4016   56.3756 C.3     1  ZINC000949401225    0.1200
     10 C10        -6.8100    3.5819   55.9629 C.3     1  ZINC000949401225    0.1200
     11 H11        -7.2170    4.5424   56.2788 H       1  ZINC000949401225    0.1000
     12 C12        -5.3303    3.3958   56.3262 C.3     1  ZINC000949401225   -0.1500
     13 C13        -5.0965    4.0580   54.9613 C.3     1  ZINC000949401225    0.1000
     14 N14        -6.4143    3.5505   54.5468 N.am    1  ZINC000949401225   -0.6400
     15 C15        -6.9995    3.2066   53.3824 C.2     1  ZINC000949401225    0.5500
     16 O16        -8.1449    2.8081   53.3739 O.2     1  ZINC000949401225   -0.5200
     17 C17        -6.2305    3.3174   52.0912 C.3     1  ZINC000949401225   -0.1400
     18 C18        -5.5437    1.9836   51.7906 C.3     1  ZINC000949401225    0.1500
     19 H19        -4.9895    1.6400   52.6642 H       1  ZINC000949401225    0.0900
     20 C20        -6.5894    0.9265   51.3713 C.3     1  ZINC000949401225   -0.1200
     21 C21        -5.8104    0.1168   50.3089 C.3     1  ZINC000949401225   -0.1600
     22 C22        -4.7695    1.0859   49.7934 C.2     1  ZINC000949401225    0.5200
     23 O23        -4.1395    0.9473   48.7664 O.2     1  ZINC000949401225   -0.5300
     24 N24        -4.6430    2.1239   50.6405 N.am    1  ZINC000949401225   -0.6200
     25 C25        -3.7266    3.2489   50.4383 C.3     1  ZINC000949401225    0.0900
     26 C26        -8.2672    0.1440   60.7729 C.2     1  ZINC000949401225    0.0800
     27 H27        -7.5830   -0.5440   63.6162 H       1  ZINC000949401225    0.0800
     28 H28        -9.1559    0.2119   63.9665 H       1  ZINC000949401225    0.0900
     29 H29        -9.0711   -1.2170   62.9084 H       1  ZINC000949401225    0.0900
     30 H30        -8.4488    2.5370   62.9814 H       1  ZINC000949401225    0.1700
     31 H31        -8.1436    3.4451   60.5422 H       1  ZINC000949401225    0.1500
     32 H32        -7.8823    3.2417   58.3161 H       1  ZINC000949401225    0.4000
     33 H33        -7.2202    1.4695   56.0643 H       1  ZINC000949401225    0.0700
     34 H34        -8.6673    2.4923   55.8977 H       1  ZINC000949401225    0.0900
     35 H35        -5.0000    3.9939   57.1755 H       1  ZINC000949401225    0.1000
     36 H36        -5.0105    2.3552   56.3787 H       1  ZINC000949401225    0.1000
     37 H37        -5.0469    5.1459   55.0094 H       1  ZINC000949401225    0.0900
     38 H38        -4.2677    3.6220   54.4035 H       1  ZINC000949401225    0.0800
     39 H39        -6.9156    3.5641   51.2802 H       1  ZINC000949401225    0.1000
     40 H40        -5.4782    4.1008   52.1825 H       1  ZINC000949401225    0.1000
     41 H41        -6.8670    0.2961   52.2159 H       1  ZINC000949401225    0.1000
     42 H42        -7.4685    1.3996   50.9339 H       1  ZINC000949401225    0.0800
     43 H43        -5.3320   -0.7499   50.7650 H       1  ZINC000949401225    0.1100
     44 H44        -6.4752   -0.1934   49.5027 H       1  ZINC000949401225    0.1000
     45 H45        -3.2393    3.1508   49.4683 H       1  ZINC000949401225    0.0800
     46 H46        -4.2864    4.1837   50.4708 H       1  ZINC000949401225    0.0600
     47 H47        -2.9726    3.2493   51.2254 H       1  ZINC000949401225    0.0600
     48 H48        -8.2609   -0.8870   60.4516 H       1  ZINC000949401225    0.1800
@<TRIPOS>BOND
     1     1     2    1
     2     1    27    1
     3     1    28    1
     4     1    29    1
     5     2    26    1
     6     2     3    1
     7     3     4    2
     8     3    30    1
     9     4     5    1
    10     4    31    1
    11     5     6    1
    12     5    26    2
    13     6     7    2
    14     6     8   am
    15     8     9    1
    16     8    32    1
    17     9    10    1
    18     9    33    1
    19     9    34    1
    20    10    11    1
    21    10    14    1
    22    10    12    1
    23    12    13    1
    24    12    35    1
    25    12    36    1
    26    13    14    1
    27    13    37    1
    28    13    38    1
    29    14    15   am
    30    15    16    2
    31    15    17    1
    32    17    18    1
    33    17    39    1
    34    17    40    1
    35    18    19    1
    36    18    24    1
    37    18    20    1
    38    20    21    1
    39    20    41    1
    40    20    42    1
    41    21    22    1
    42    21    43    1
    43    21    44    1
    44    22    23    2
    45    22    24   am
    46    24    25    1
    47    25    45    1
    48    25    46    1
    49    25    47    1
    50    26    48    1
@<TRIPOS>SUBSTRUCTURE
     1 ZINC000949401225        1 TEMP              0 ****  ****    0 ROOT


##########                                Name:    ZINC000847397179
##########                DOCK_Rotatable_Bonds:                   9
##########                         Heavy_Atoms:                  25
##########                    Molecular_Weight:             350.461
##########                DOCK_Rotatable_Bonds:                   9
##########                       Formal_Charge:          0.00999979
##########                     HBond_Acceptors:                   7
##########                        HBond_Donors:                   2
##########                         Heavy_Atoms:                  25
##########                          Grid_Score:          -31.341949
##########                     Grid_vdw_energy:          -29.509979
##########                      Grid_es_energy:           -1.831970
##########           Internal_energy_repulsive:           83.136139

@<TRIPOS>MOLECULE
ZINC000847397179
 55 56 1 0 0
SMALL
USER_CHARGES


@<TRIPOS>ATOM
      1 C1         -6.6295    2.6456   49.5868 C.3     1  ZINC000847397179   -0.1500
      2 C2         -5.7184    1.4620   49.9182 C.3     1  ZINC000847397179   -0.1000
      3 H3         -6.0413    0.5862   49.3555 H       1  ZINC000847397179    0.0900
      4 C4         -5.7961    1.1626   51.4166 C.3     1  ZINC000847397179   -0.0200
      5 C5         -7.1783    0.6698   51.7594 C.2     1  ZINC000847397179    0.0100
      6 C6         -8.1965    1.4234   52.2162 C.2     1  ZINC000847397179   -0.0500
      7 N7         -9.2620    0.5830   52.3954 N.pl3   1  ZINC000847397179   -0.5700
      8 C8         -8.8575   -0.6558   52.0416 C.2     1  ZINC000847397179    0.1800
      9 N9         -7.6118   -0.5954   51.6575 N.2     1  ZINC000847397179   -0.4900
     10 C10        -4.2980    1.8023   49.5469 C.2     1  ZINC000847397179    0.5200
     11 O11        -3.7785    1.2726   48.5875 O.2     1  ZINC000847397179   -0.5300
     12 N12        -3.6050    2.6952   50.2809 N.am    1  ZINC000847397179   -0.7400
     13 C13        -2.2237    3.0247   49.9210 C.3     1  ZINC000847397179    0.1200
     14 C14        -1.6821    4.0788   50.8887 C.3     1  ZINC000847397179    0.1500
     15 H15        -2.2101    5.0201   50.7366 H       1  ZINC000847397179    0.0800
     16 C16        -1.8840    3.6038   52.3311 C.3     1  ZINC000847397179   -0.1300
     17 C17        -1.2174    4.5945   53.2883 C.3     1  ZINC000847397179   -0.1200
     18 C18         0.2854    4.6490   53.0035 C.3     1  ZINC000847397179   -0.1400
     19 C19         0.5119    5.1358   51.5689 C.3     1  ZINC000847397179    0.1100
     20 N20        -0.2458    4.2755   50.6493 N.am    1  ZINC000847397179   -0.5900
     21 C21         0.3661    3.6748   49.6096 C.2     1  ZINC000847397179    0.6500
     22 O22        -0.2715    2.9658   48.8564 O.2     1  ZINC000847397179   -0.5500
     23 O23         1.6839    3.8601   49.4055 O.3     1  ZINC000847397179   -0.3600
     24 C24         2.5464    2.7047   49.5766 C.3     1  ZINC000847397179    0.1400
     25 C25         1.9671    1.7915   50.6588 C.3     1  ZINC000847397179   -0.1800
     26 C26         2.6380    1.9366   48.2565 C.3     1  ZINC000847397179   -0.1400
     27 C27         3.9433    3.1685   49.9947 C.3     1  ZINC000847397179   -0.1800
     28 H28        -6.3068    3.5215   50.1495 H       1  ZINC000847397179    0.0500
     29 H29        -6.5742    2.8589   48.5192 H       1  ZINC000847397179    0.0500
     30 H30        -7.6570    2.3995   49.8554 H       1  ZINC000847397179    0.1000
     31 H31        -5.0635    0.3972   51.6727 H       1  ZINC000847397179    0.0800
     32 H32        -5.5842    2.0713   51.9802 H       1  ZINC000847397179    0.0800
     33 H33        -8.1763    2.4866   52.4053 H       1  ZINC000847397179    0.1800
     34 H34       -10.1431    0.8310   52.7167 H       1  ZINC000847397179    0.4200
     35 H35        -9.4655   -1.5481   52.0681 H       1  ZINC000847397179    0.2100
     36 H36        -4.0209    3.1197   51.0475 H       1  ZINC000847397179    0.3900
     37 H37        -1.6087    2.1268   49.9804 H       1  ZINC000847397179    0.0800
     38 H38        -2.1969    3.4169   48.9043 H       1  ZINC000847397179    0.1000
     39 H39        -2.9504    3.5481   52.5498 H       1  ZINC000847397179    0.0800
     40 H40        -1.4346    2.6187   52.4560 H       1  ZINC000847397179    0.0700
     41 H41        -1.6501    5.5847   53.1454 H       1  ZINC000847397179    0.0700
     42 H42        -1.3807    4.2718   54.3165 H       1  ZINC000847397179    0.0700
     43 H43         0.7631    5.3370   53.7010 H       1  ZINC000847397179    0.0800
     44 H44         0.7144    3.6540   53.1221 H       1  ZINC000847397179    0.0700
     45 H45         0.1648    6.1646   51.4729 H       1  ZINC000847397179    0.0700
     46 H46         1.5737    5.0822   51.3282 H       1  ZINC000847397179    0.0900
     47 H47         0.9720    1.4610   50.3611 H       1  ZINC000847397179    0.0600
     48 H48         2.6147    0.9241   50.7874 H       1  ZINC000847397179    0.0700
     49 H49         1.9018    2.3387   51.5993 H       1  ZINC000847397179    0.0900
     50 H50         3.0508    2.5872   47.4855 H       1  ZINC000847397179    0.0700
     51 H51         3.2856    1.0693   48.3851 H       1  ZINC000847397179    0.0800
     52 H52         1.6430    1.6061   47.9587 H       1  ZINC000847397179    0.0700
     53 H53         3.8780    3.7157   50.9353 H       1  ZINC000847397179    0.0900
     54 H54         4.5908    2.3012   50.1233 H       1  ZINC000847397179    0.0700
     55 H55         4.3560    3.8191   49.2237 H       1  ZINC000847397179    0.0600
@<TRIPOS>BOND
     1     1     2    1
     2     1    28    1
     3     1    29    1
     4     1    30    1
     5     2     3    1
     6     2     4    1
     7     2    10    1
     8     4     5    1
     9     4    31    1
    10     4    32    1
    11     5     9    1
    12     5     6    2
    13     6     7    1
    14     6    33    1
    15     7     8    1
    16     7    34    1
    17     8     9    2
    18     8    35    1
    19    10    11    2
    20    10    12   am
    21    12    13    1
    22    12    36    1
    23    13    14    1
    24    13    37    1
    25    13    38    1
    26    14    15    1
    27    14    20    1
    28    14    16    1
    29    16    17    1
    30    16    39    1
    31    16    40    1
    32    17    18    1
    33    17    41    1
    34    17    42    1
    35    18    19    1
    36    18    43    1
    37    18    44    1
    38    19    20    1
    39    19    45    1
    40    19    46    1
    41    20    21   am
    42    21    22    2
    43    21    23    1
    44    23    24    1
    45    24    25    1
    46    24    26    1
    47    24    27    1
    48    25    47    1
    49    25    48    1
    50    25    49    1
    51    26    50    1
    52    26    51    1
    53    26    52    1
    54    27    53    1
    55    27    54    1
    56    27    55    1
@<TRIPOS>SUBSTRUCTURE
     1 ZINC000847397179        1 TEMP              0 ****  ****    0 ROOT


##########                                Name:    ZINC000151303733
##########                DOCK_Rotatable_Bonds:                   7
##########                         Heavy_Atoms:                  26
##########                    Molecular_Weight:             369.444
##########                DOCK_Rotatable_Bonds:                   7
##########                       Formal_Charge:        -1.93715e-07
##########                     HBond_Acceptors:                   7
##########                        HBond_Donors:                   2
##########                         Heavy_Atoms:                  26
##########                          Grid_Score:          -31.326088
##########                     Grid_vdw_energy:          -31.179901
##########                      Grid_es_energy:           -0.146187
##########           Internal_energy_repulsive:           11.215846

@<TRIPOS>MOLECULE
ZINC000151303733
 45 48 1 0 0
SMALL
USER_CHARGES


@<TRIPOS>ATOM
      1 C1         -9.5007    0.5593   52.4696 C.3     1  ZINC000151303733   -0.1000
      2 C2         -8.7186    1.0896   53.6437 C.2     1  ZINC000151303733   -0.1200
      3 C3         -9.2760    1.3156   54.8340 C.2     1  ZINC000151303733   -0.2000
      4 S4         -8.0630    1.9281   55.9503 S.3     1  ZINC000151303733    0.1200
      5 C5         -6.8257    1.8421   54.7034 C.2     1  ZINC000151303733   -0.2400
      6 C6         -7.3622    1.3744   53.5703 C.2     1  ZINC000151303733    0.1200
      7 N7         -6.6119    1.1947   52.3934 N.am    1  ZINC000151303733   -0.6400
      8 C8         -6.3502   -0.0487   51.9441 C.2     1  ZINC000151303733    0.5100
      9 O9         -6.7616   -1.0131   52.5544 O.2     1  ZINC000151303733   -0.5100
     10 C10        -5.5467   -0.2411   50.6838 C.3     1  ZINC000151303733    0.1000
     11 N11        -4.7656    0.9684   50.4134 N.am    1  ZINC000151303733   -0.7100
     12 C12        -5.3067    1.9741   49.6975 C.2     1  ZINC000151303733    0.5200
     13 O13        -6.4398    1.8770   49.2761 O.2     1  ZINC000151303733   -0.5100
     14 C14        -4.5039    3.2189   49.4208 C.3     1  ZINC000151303733    0.1600
     15 H15        -5.0500    3.8731   48.7411 H       1  ZINC000151303733    0.1300
     16 C16        -3.1676    2.8522   48.8254 C.ar    1  ZINC000151303733   -0.0900
     17 C17        -2.7967    2.1938   47.6763 C.ar    1  ZINC000151303733   -0.0900
     18 C18        -1.4549    2.0019   47.3913 C.ar    1  ZINC000151303733   -0.0800
     19 C19        -0.4854    2.4710   48.2596 C.ar    1  ZINC000151303733   -0.1200
     20 C20        -0.8466    3.1328   49.4152 C.ar    1  ZINC000151303733   -0.0400
     21 C21        -2.1967    3.3300   49.7093 C.ar    1  ZINC000151303733   -0.1500
     22 C22        -2.8825    3.9849   50.8396 C.2     1  ZINC000151303733    0.5600
     23 O23        -2.3224    4.5065   51.7839 O.2     1  ZINC000151303733   -0.5100
     24 N24        -4.2164    3.9228   50.6759 N.am    1  ZINC000151303733   -0.5700
     25 C25        -5.2156    4.4675   51.5984 C.3     1  ZINC000151303733    0.0900
     26 C26        -5.0160    5.9030   52.0889 C.3     1  ZINC000151303733   -0.1800
     27 C27        -6.1210    5.5863   51.0792 C.3     1  ZINC000151303733   -0.1900
     28 H28        -9.4716   -0.5303   52.4760 H       1  ZINC000151303733    0.0700
     29 H29       -10.5350    0.8956   52.5403 H       1  ZINC000151303733    0.0700
     30 H30        -9.0609    0.9291   51.5434 H       1  ZINC000151303733    0.0600
     31 H31       -10.3153    1.1483   55.0756 H       1  ZINC000151303733    0.1700
     32 H32        -5.7903    2.1202   54.8337 H       1  ZINC000151303733    0.2000
     33 H33        -6.2829    1.9658   51.9056 H       1  ZINC000151303733    0.4200
     34 H34        -4.8727   -1.0886   50.8085 H       1  ZINC000151303733    0.1100
     35 H35        -6.2207   -0.4326   49.8489 H       1  ZINC000151303733    0.1100
     36 H36        -3.8590    1.0455   50.7494 H       1  ZINC000151303733    0.4100
     37 H37        -3.5513    1.8262   46.9967 H       1  ZINC000151303733    0.1300
     38 H38        -1.1647    1.4844   46.4889 H       1  ZINC000151303733    0.1400
     39 H39         0.5592    2.3179   48.0320 H       1  ZINC000151303733    0.1400
     40 H40        -0.0865    3.4977   50.0903 H       1  ZINC000151303733    0.1400
     41 H41        -5.6496    3.7523   52.2972 H       1  ZINC000151303733    0.1400
     42 H42        -5.3185    6.1323   53.1107 H       1  ZINC000151303733    0.1000
     43 H43        -4.1412    6.4420   51.7253 H       1  ZINC000151303733    0.1300
     44 H44        -5.9732    5.9170   50.0512 H       1  ZINC000151303733    0.1000
     45 H45        -7.1505    5.6073   51.4366 H       1  ZINC000151303733    0.1000
@<TRIPOS>BOND
     1     1     2    1
     2     1    28    1
     3     1    29    1
     4     1    30    1
     5     2     6    1
     6     2     3    2
     7     3     4    1
     8     3    31    1
     9     4     5    1
    10     5     6    2
    11     5    32    1
    12     6     7    1
    13     7     8   am
    14     7    33    1
    15     8     9    2
    16     8    10    1
    17    10    11    1
    18    10    34    1
    19    10    35    1
    20    11    12   am
    21    11    36    1
    22    12    13    2
    23    12    14    1
    24    14    15    1
    25    14    24    1
    26    14    16    1
    27    16    21   ar
    28    16    17   ar
    29    17    18   ar
    30    17    37    1
    31    18    19   ar
    32    18    38    1
    33    19    20   ar
    34    19    39    1
    35    20    21   ar
    36    20    40    1
    37    21    22    1
    38    22    23    2
    39    22    24   am
    40    24    25    1
    41    25    27    1
    42    25    26    1
    43    25    41    1
    44    26    27    1
    45    26    42    1
    46    26    43    1
    47    27    44    1
    48    27    45    1
@<TRIPOS>SUBSTRUCTURE
     1 ZINC000151303733        1 TEMP              0 ****  ****    0 ROOT


##########                                Name:    ZINC000587344575
##########                DOCK_Rotatable_Bonds:                   7
##########                         Heavy_Atoms:                  30
##########                    Molecular_Weight:             408.475
##########                DOCK_Rotatable_Bonds:                   7
##########                       Formal_Charge:          -0.0100002
##########                     HBond_Acceptors:                   7
##########                        HBond_Donors:                   2
##########                         Heavy_Atoms:                  30
##########                          Grid_Score:          -31.324902
##########                     Grid_vdw_energy:          -30.062481
##########                      Grid_es_energy:           -1.262421
##########           Internal_energy_repulsive:           19.240538

@<TRIPOS>MOLECULE
ZINC000587344575
 55 57 1 0 0
SMALL
USER_CHARGES


@<TRIPOS>ATOM
      1 C1          2.5173    2.2154   48.6924 C.3     1  ZINC000587344575   -0.1200
      2 C2          1.1115    2.0958   48.1629 C.ar    1  ZINC000587344575    0.0000
      3 C3          0.0697    2.6974   48.8318 C.ar    1  ZINC000587344575   -0.1600
      4 C4         -1.2286    2.5879   48.3434 C.ar    1  ZINC000587344575    0.1800
      5 N5         -2.2815    3.1989   49.0233 N.am    1  ZINC000587344575   -0.6700
      6 C6         -3.3981    2.4988   49.3054 C.2     1  ZINC000587344575    0.5200
      7 O7         -3.4870    1.3374   48.9677 O.2     1  ZINC000587344575   -0.5000
      8 C8         -4.5361    3.1591   50.0403 C.3     1  ZINC000587344575   -0.1200
      9 H9         -4.7778    4.1170   49.5798 H       1  ZINC000587344575    0.1100
     10 C10        -4.1703    3.3567   51.5292 C.3     1  ZINC000587344575   -0.1200
     11 C11        -5.4997    3.0366   52.2580 C.3     1  ZINC000587344575    0.0400
     12 N12        -6.0626    1.9163   51.4617 N.3     1  ZINC000587344575   -0.4800
     13 C13        -7.4341    1.7926   51.6738 C.ar    1  ZINC000587344575    0.0700
     14 C14        -8.2715    2.8803   51.4506 C.ar    1  ZINC000587344575   -0.1200
     15 C15        -9.6277    2.7621   51.6596 C.ar    1  ZINC000587344575   -0.0700
     16 C16       -10.1635    1.5473   52.0961 C.ar    1  ZINC000587344575    0.0000
     17 C17       -11.5734    1.4219   52.3136 C.1     1  ZINC000587344575    0.2500
     18 N18       -12.6917    1.3223   52.4862 N.1     1  ZINC000587344575   -0.4000
     19 C19        -9.3200    0.4545   52.3196 C.ar    1  ZINC000587344575   -0.1000
     20 C20        -7.9646    0.5776   52.1036 C.ar    1  ZINC000587344575    0.1300
     21 F21        -7.1482   -0.4772   52.3185 F       1  ZINC000587344575   -0.1200
     22 C22        -5.7727    2.2415   50.0459 C.3     1  ZINC000587344575    0.0500
     23 C23        -1.4784    1.8706   47.1779 C.ar    1  ZINC000587344575   -0.1400
     24 C24        -0.4410    1.2665   46.5037 C.ar    1  ZINC000587344575   -0.0600
     25 C25         0.8648    1.3789   46.9887 C.ar    1  ZINC000587344575   -0.1600
     26 C26         1.9794    0.7330   46.2684 C.2     1  ZINC000587344575    0.5600
     27 O27         2.2181   -0.4454   46.4490 O.2     1  ZINC000587344575   -0.5300
     28 N28         2.7326    1.4495   45.4107 N.am    1  ZINC000587344575   -0.7200
     29 C29         3.8401    0.8087   44.6971 C.3     1  ZINC000587344575    0.1400
     30 C30         3.2814   -0.1482   43.6421 C.3     1  ZINC000587344575   -0.1600
     31 C31         4.6937    1.8790   44.0138 C.3     1  ZINC000587344575   -0.1600
     32 H32         3.0312    3.0278   48.1787 H       1  ZINC000587344575    0.0800
     33 H33         2.4862    2.4239   49.7618 H       1  ZINC000587344575    0.0600
     34 H34         3.0513    1.2809   48.5198 H       1  ZINC000587344575    0.1000
     35 H35         0.2602    3.2547   49.7372 H       1  ZINC000587344575    0.1300
     36 H36        -2.2104    4.1278   49.2934 H       1  ZINC000587344575    0.4100
     37 H37        -3.3881    2.6598   51.8302 H       1  ZINC000587344575    0.0900
     38 H38        -3.8650    4.3859   51.7182 H       1  ZINC000587344575    0.0900
     39 H39        -5.3098    2.7219   53.2842 H       1  ZINC000587344575    0.0900
     40 H40        -6.1674    3.8979   52.2360 H       1  ZINC000587344575    0.0600
     41 H41        -7.8577    3.8191   51.1133 H       1  ZINC000587344575    0.1400
     42 H42       -10.2768    3.6078   51.4866 H       1  ZINC000587344575    0.1400
     43 H43        -9.7307   -0.4857   52.6567 H       1  ZINC000587344575    0.1500
     44 H44        -6.6235    2.7585   49.6019 H       1  ZINC000587344575    0.0600
     45 H45        -5.5594    1.3277   49.4912 H       1  ZINC000587344575    0.1100
     46 H46        -2.4873    1.7872   46.8016 H       1  ZINC000587344575    0.1400
     47 H47        -0.6355    0.7097   45.5990 H       1  ZINC000587344575    0.1300
     48 H48         2.5415    2.3893   45.2658 H       1  ZINC000587344575    0.4000
     49 H49         4.4540    0.2513   45.4044 H       1  ZINC000587344575    0.0900
     50 H50         2.6674    0.4093   42.9346 H       1  ZINC000587344575    0.0600
     51 H51         4.1053   -0.6249   43.1112 H       1  ZINC000587344575    0.0700
     52 H52         2.6733   -0.9107   44.1288 H       1  ZINC000587344575    0.0600
     53 H53         4.0798    2.4365   43.3064 H       1  ZINC000587344575    0.0600
     54 H54         5.0917    2.5607   44.7653 H       1  ZINC000587344575    0.0600
     55 H55         5.5177    1.4023   43.4829 H       1  ZINC000587344575    0.0700
@<TRIPOS>BOND
     1     1     2    1
     2     1    32    1
     3     1    33    1
     4     1    34    1
     5     2    25   ar
     6     2     3   ar
     7     3     4   ar
     8     3    35    1
     9     4     5    1
    10     4    23   ar
    11     5     6   am
    12     5    36    1
    13     6     7    2
    14     6     8    1
    15     8     9    1
    16     8    22    1
    17     8    10    1
    18    10    11    1
    19    10    37    1
    20    10    38    1
    21    11    12    1
    22    11    39    1
    23    11    40    1
    24    12    13    1
    25    12    22    1
    26    13    20   ar
    27    13    14   ar
    28    14    15   ar
    29    14    41    1
    30    15    16   ar
    31    15    42    1
    32    16    17    1
    33    16    19   ar
    34    17    18    3
    35    19    20   ar
    36    19    43    1
    37    20    21    1
    38    22    44    1
    39    22    45    1
    40    23    24   ar
    41    23    46    1
    42    24    25   ar
    43    24    47    1
    44    25    26    1
    45    26    27    2
    46    26    28   am
    47    28    29    1
    48    28    48    1
    49    29    30    1
    50    29    31    1
    51    29    49    1
    52    30    50    1
    53    30    51    1
    54    30    52    1
    55    31    53    1
    56    31    54    1
    57    31    55    1
@<TRIPOS>SUBSTRUCTURE
     1 ZINC000587344575        1 TEMP              0 ****  ****    0 ROOT


##########                                Name:    ZINC000624498741
##########                DOCK_Rotatable_Bonds:                   7
##########                         Heavy_Atoms:                  27
##########                    Molecular_Weight:             379.339
##########                DOCK_Rotatable_Bonds:                   7
##########                       Formal_Charge:           0.0300003
##########                     HBond_Acceptors:                   9
##########                        HBond_Donors:                   0
##########                         Heavy_Atoms:                  27
##########                          Grid_Score:          -31.324633
##########                     Grid_vdw_energy:          -30.896177
##########                      Grid_es_energy:           -0.428456
##########           Internal_energy_repulsive:           11.400602

@<TRIPOS>MOLECULE
ZINC000624498741
 43 45 1 0 0
SMALL
USER_CHARGES


@<TRIPOS>ATOM
      1 C1          1.2866    3.3785   50.2448 C.3     1  ZINC000624498741   -0.1100
      2 C2          0.2439    2.9071   49.2640 C.ar    1  ZINC000624498741   -0.0900
      3 C3         -1.0810    2.8621   49.6375 C.ar    1  ZINC000624498741   -0.0400
      4 C4         -2.0469    2.4254   48.7274 C.ar    1  ZINC000624498741   -0.0500
      5 C5         -3.4685    2.3759   49.1235 C.2     1  ZINC000624498741    0.2300
      6 N6         -4.1269    1.3212   49.5727 N.2     1  ZINC000624498741   -0.4700
      7 C7         -5.3783    1.7490   49.8009 C.2     1  ZINC000624498741    0.1800
      8 C8         -6.5211    0.9178   50.3242 C.3     1  ZINC000624498741   -0.0300
      9 C9         -6.0066   -0.0320   51.4078 C.3     1  ZINC000624498741   -0.1300
     10 C10        -7.1932   -0.6914   52.1135 C.3     1  ZINC000624498741    0.0900
     11 N11        -7.9587    0.3270   52.8368 N.am    1  ZINC000624498741   -0.5000
     12 C12        -7.3429    1.0863   53.7788 C.2     1  ZINC000624498741    0.1300
     13 C13        -8.0293    2.0331   54.4602 C.2     1  ZINC000624498741   -0.2300
     14 C14        -9.3907    2.2373   54.1953 C.2     1  ZINC000624498741   -0.0200
     15 C15       -10.0076    1.4738   53.2482 C.2     1  ZINC000624498741   -0.2400
     16 C16        -9.2638    0.5031   52.5557 C.2     1  ZINC000624498741    0.5100
     17 O17        -9.8033   -0.1871   51.7057 O.2     1  ZINC000624498741   -0.5500
     18 N18        -5.4262    3.0107   49.4895 N.2     1  ZINC000624498741   -0.3700
     19 O19        -4.3425    3.3945   49.1033 O.3     1  ZINC000624498741    0.0900
     20 C20        -1.6643    2.0361   47.4418 C.ar    1  ZINC000624498741   -0.0200
     21 C21        -0.3368    2.0842   47.0761 C.ar    1  ZINC000624498741   -0.1900
     22 C22         0.6199    2.5240   47.9823 C.ar    1  ZINC000624498741    0.1300
     23 O23         1.9271    2.5698   47.6180 O.3     1  ZINC000624498741   -0.3000
     24 C24         2.3452    3.6942   46.8415 C.3     1  ZINC000624498741    0.6000
     25 F25         3.7414    3.7796   46.8588 F       1  ZINC000624498741   -0.1600
     26 F26         1.9038    3.5404   45.5228 F       1  ZINC000624498741   -0.1300
     27 F27         1.7997    4.8633   47.3825 F       1  ZINC000624498741   -0.1600
     28 H28         1.4087    4.4579   50.1546 H       1  ZINC000624498741    0.0800
     29 H29         0.9699    3.1321   51.2583 H       1  ZINC000624498741    0.0800
     30 H30         2.2354    2.8864   50.0309 H       1  ZINC000624498741    0.0800
     31 H31        -1.3729    3.1635   50.6326 H       1  ZINC000624498741    0.1500
     32 H32        -7.2829    1.5727   50.7472 H       1  ZINC000624498741    0.1000
     33 H33        -6.9526    0.3383   49.5081 H       1  ZINC000624498741    0.1000
     34 H34        -5.3828   -0.8005   50.9510 H       1  ZINC000624498741    0.0800
     35 H35        -5.4184    0.5294   52.1337 H       1  ZINC000624498741    0.0800
     36 H36        -7.8346   -1.1712   51.3744 H       1  ZINC000624498741    0.1100
     37 H37        -6.8276   -1.4391   52.8174 H       1  ZINC000624498741    0.1000
     38 H38        -6.2943    0.9331   53.9867 H       1  ZINC000624498741    0.1600
     39 H39        -7.5287    2.6304   55.2080 H       1  ZINC000624498741    0.1500
     40 H40        -9.9451    2.9907   54.7354 H       1  ZINC000624498741    0.1400
     41 H41       -11.0557    1.6164   53.0301 H       1  ZINC000624498741    0.1500
     42 H42        -2.4079    1.6975   46.7356 H       1  ZINC000624498741    0.1500
     43 H43        -0.0400    1.7830   46.0822 H       1  ZINC000624498741    0.1500
@<TRIPOS>BOND
     1     1     2    1
     2     1    28    1
     3     1    29    1
     4     1    30    1
     5     2    22   ar
     6     2     3   ar
     7     3     4   ar
     8     3    31    1
     9     4     5    1
    10     4    20   ar
    11     5    19    1
    12     5     6    2
    13     6     7    1
    14     7     8    1
    15     7    18    2
    16     8     9    1
    17     8    32    1
    18     8    33    1
    19     9    10    1
    20     9    34    1
    21     9    35    1
    22    10    11    1
    23    10    36    1
    24    10    37    1
    25    11    16   am
    26    11    12    1
    27    12    13    2
    28    12    38    1
    29    13    14    1
    30    13    39    1
    31    14    15    2
    32    14    40    1
    33    15    16    1
    34    15    41    1
    35    16    17    2
    36    18    19    1
    37    20    21   ar
    38    20    42    1
    39    21    22   ar
    40    21    43    1
    41    22    23    1
    42    23    24    1
    43    24    25    1
    44    24    26    1
    45    24    27    1
@<TRIPOS>SUBSTRUCTURE
     1 ZINC000624498741        1 TEMP              0 ****  ****    0 ROOT


##########                                Name:    ZINC000906038034
##########                DOCK_Rotatable_Bonds:                   5
##########                         Heavy_Atoms:                  23
##########                    Molecular_Weight:             387.428
##########                DOCK_Rotatable_Bonds:                   5
##########                       Formal_Charge:         -0.00999987
##########                     HBond_Acceptors:                  12
##########                        HBond_Donors:                   0
##########                         Heavy_Atoms:                  23
##########                          Grid_Score:          -31.315573
##########                     Grid_vdw_energy:          -29.943481
##########                      Grid_es_energy:           -1.372092
##########           Internal_energy_repulsive:            6.898489

@<TRIPOS>MOLECULE
ZINC000906038034
 35 36 1 0 0
SMALL
USER_CHARGES


@<TRIPOS>ATOM
      1 C1        -11.1186   -2.7702   56.7184 C.3     1  ZINC000906038034    0.1000
      2 N2        -11.0900   -1.7299   55.6873 N.pl3   1  ZINC000906038034   -0.3700
      3 C3        -12.1632   -1.0777   55.1899 C.2     1  ZINC000906038034    0.0600
      4 C4        -11.7254   -0.1992   54.2626 C.2     1  ZINC000906038034   -0.2500
      5 C5        -10.3221   -0.3155   54.1857 C.2     1  ZINC000906038034    0.1200
      6 C6         -9.4315    0.4615   53.2967 C.2     1  ZINC000906038034    0.1500
      7 N7         -8.1376    0.3340   53.2243 N.2     1  ZINC000906038034   -0.4300
      8 C8         -7.5078    1.1119   52.3734 C.2     1  ZINC000906038034    0.0600
      9 C9         -6.0122    1.0594   52.1969 C.3     1  ZINC000906038034   -0.5300
     10 S10        -5.6162    0.9135   50.4327 S.o2    1  ZINC000906038034    2.4200
     11 O11        -4.4383    0.1305   50.2962 O.2     1  ZINC000906038034   -0.9100
     12 O12        -6.7919    0.5254   49.7355 O.2     1  ZINC000906038034   -0.9200
     13 C13        -5.2238    2.6292   49.9935 C.3     1  ZINC000906038034   -0.6100
     14 C14        -3.8097    2.9671   50.4700 C.3     1  ZINC000906038034   -0.4500
     15 S15        -2.6840    2.9997   49.0479 S.o     1  ZINC000906038034    1.3300
     16 O16        -2.6156    1.7041   48.4682 O.2     1  ZINC000906038034   -0.7600
     17 C17        -1.0859    3.4097   49.8020 C.3     1  ZINC000906038034    0.1200
     18 F18        -0.7444    2.4254   50.7356 F       1  ZINC000906038034   -0.1900
     19 F19        -0.1033    3.4707   48.8080 F       1  ZINC000906038034   -0.1700
     20 F20        -1.1775    4.6495   50.4438 F       1  ZINC000906038034   -0.1600
     21 C21        -8.2760    1.9525   51.6736 C.2     1  ZINC000906038034   -0.2300
     22 S22        -9.9516    1.7030   52.1601 S.3     1  ZINC000906038034    0.1600
     23 N23        -9.9445   -1.2353   55.0509 N.2     1  ZINC000906038034   -0.2400
     24 H24       -11.0314   -2.3092   57.7022 H       1  ZINC000906038034    0.0800
     25 H25       -12.0590   -3.3179   56.6560 H       1  ZINC000906038034    0.0900
     26 H26       -10.2869   -3.4576   56.5642 H       1  ZINC000906038034    0.0900
     27 H27       -13.1913   -1.2320   55.4824 H       1  ZINC000906038034    0.1800
     28 H28       -12.3406    0.4727   53.6826 H       1  ZINC000906038034    0.1600
     29 H29        -5.5670    1.9712   52.5951 H       1  ZINC000906038034    0.1500
     30 H30        -5.6133    0.1971   52.7313 H       1  ZINC000906038034    0.1600
     31 H31        -5.2812    2.7496   48.9117 H       1  ZINC000906038034    0.1500
     32 H32        -5.9382    3.2992   50.4719 H       1  ZINC000906038034    0.1500
     33 H33        -3.8130    3.9440   50.9534 H       1  ZINC000906038034    0.1600
     34 H34        -3.4755    2.2112   51.1808 H       1  ZINC000906038034    0.1300
     35 H35        -7.9300    2.6599   50.9344 H       1  ZINC000906038034    0.1900
@<TRIPOS>BOND
     1     1     2    1
     2     1    24    1
     3     1    25    1
     4     1    26    1
     5     2    23    1
     6     2     3    1
     7     3     4    2
     8     3    27    1
     9     4     5    1
    10     4    28    1
    11     5     6    1
    12     5    23    2
    13     6    22    1
    14     6     7    2
    15     7     8    1
    16     8     9    1
    17     8    21    2
    18     9    10    1
    19     9    29    1
    20     9    30    1
    21    10    11    2
    22    10    12    2
    23    10    13    1
    24    13    14    1
    25    13    31    1
    26    13    32    1
    27    14    15    1
    28    14    33    1
    29    14    34    1
    30    15    16    2
    31    15    17    1
    32    17    18    1
    33    17    19    1
    34    17    20    1
    35    21    22    1
    36    21    35    1
@<TRIPOS>SUBSTRUCTURE
     1 ZINC000906038034        1 TEMP              0 ****  ****    0 ROOT


##########                                Name:    ZINC000952280524
##########                DOCK_Rotatable_Bonds:                   9
##########                         Heavy_Atoms:                  25
##########                    Molecular_Weight:             348.486
##########                DOCK_Rotatable_Bonds:                   9
##########                       Formal_Charge:          -0.0100004
##########                     HBond_Acceptors:                   5
##########                        HBond_Donors:                   1
##########                         Heavy_Atoms:                  25
##########                          Grid_Score:          -31.307096
##########                     Grid_vdw_energy:          -30.891474
##########                      Grid_es_energy:           -0.415622
##########           Internal_energy_repulsive:           19.157097

@<TRIPOS>MOLECULE
ZINC000952280524
 57 59 1 0 0
SMALL
USER_CHARGES


@<TRIPOS>ATOM
      1 C1        -11.9682   -0.2727   55.2158 C.3     1  ZINC000952280524   -0.1800
      2 C2        -10.8415    0.6784   54.8072 C.3     1  ZINC000952280524    0.1400
      3 C3        -11.1537    1.2795   53.4354 C.3     1  ZINC000952280524   -0.1900
      4 O4        -10.7295    1.7265   55.7721 O.3     1  ZINC000952280524   -0.5500
      5 C5         -9.5224   -0.0937   54.7375 C.3     1  ZINC000952280524   -0.1200
      6 C6         -8.3931    0.8652   54.4616 C.2     1  ZINC000952280524    0.5300
      7 O7         -8.0351    1.6436   55.3200 O.2     1  ZINC000952280524   -0.5100
      8 N8         -7.7810    0.8578   53.2609 N.am    1  ZINC000952280524   -0.6300
      9 C9         -8.1123   -0.0285   52.1356 C.3     1  ZINC000952280524    0.1000
     10 C10        -7.1366    0.3046   50.9873 C.3     1  ZINC000952280524   -0.1300
     11 C11        -5.9441    0.9678   51.7259 C.3     1  ZINC000952280524   -0.1000
     12 H12        -5.2702    0.2148   52.1347 H       1  ZINC000952280524    0.0900
     13 C13        -5.1926    1.9284   50.8022 C.3     1  ZINC000952280524   -0.0700
     14 C14        -3.9745    2.4934   51.5363 C.3     1  ZINC000952280524   -0.1300
     15 C15        -3.2442    3.4810   50.6207 C.3     1  ZINC000952280524    0.1100
     16 N16        -2.9264    2.8060   49.3549 N.am    1  ZINC000952280524   -0.6100
     17 C17        -1.6636    2.7886   48.8842 C.2     1  ZINC000952280524    0.5500
     18 O18        -1.4133    2.2265   47.8352 O.2     1  ZINC000952280524   -0.5500
     19 C19        -0.5880    3.4496   49.6394 C.2     1  ZINC000952280524   -0.2200
     20 C20         0.4439    2.7397   50.0863 C.2     1  ZINC000952280524   -0.0300
     21 C21         1.5466    3.4172   50.8585 C.3     1  ZINC000952280524   -0.1500
     22 C22         1.3340    3.6239   52.3594 C.3     1  ZINC000952280524   -0.1700
     23 C23         2.3273    2.5702   51.8656 C.3     1  ZINC000952280524   -0.1600
     24 C24        -4.0112    2.1498   48.6124 C.3     1  ZINC000952280524    0.1000
     25 C25        -4.7328    1.1772   49.5505 C.3     1  ZINC000952280524   -0.1300
     26 C26        -6.6724    1.7414   52.8562 C.3     1  ZINC000952280524    0.1100
     27 H27       -12.1119   -1.0214   54.4368 H       1  ZINC000952280524    0.0700
     28 H28       -11.7051   -0.7671   56.1508 H       1  ZINC000952280524    0.0600
     29 H29       -12.8901    0.2930   55.3505 H       1  ZINC000952280524    0.0600
     30 H30       -12.0934    1.8296   53.4850 H       1  ZINC000952280524    0.0600
     31 H31       -10.3510    1.9571   53.1443 H       1  ZINC000952280524    0.0800
     32 H32       -11.2391    0.4801   52.6993 H       1  ZINC000952280524    0.0600
     33 H33       -10.5526    1.4165   56.6708 H       1  ZINC000952280524    0.3700
     34 H34        -9.3465   -0.5987   55.6873 H       1  ZINC000952280524    0.1000
     35 H35        -9.5756   -0.8322   53.9376 H       1  ZINC000952280524    0.1000
     36 H36        -7.9905   -1.0694   52.4353 H       1  ZINC000952280524    0.0700
     37 H37        -9.1384    0.1492   51.8136 H       1  ZINC000952280524    0.0700
     38 H38        -6.8170   -0.6040   50.4770 H       1  ZINC000952280524    0.0800
     39 H39        -7.5917    1.0030   50.2850 H       1  ZINC000952280524    0.0800
     40 H40        -5.8534    2.7456   50.5130 H       1  ZINC000952280524    0.0800
     41 H41        -4.3008    3.0083   52.4399 H       1  ZINC000952280524    0.0800
     42 H42        -3.3010    1.6793   51.8040 H       1  ZINC000952280524    0.0700
     43 H43        -3.8852    4.3408   50.4254 H       1  ZINC000952280524    0.0700
     44 H44        -2.3227    3.8111   51.1002 H       1  ZINC000952280524    0.0900
     45 H45        -0.6365    4.5113   49.8309 H       1  ZINC000952280524    0.1300
     46 H46         0.4917    1.6777   49.8960 H       1  ZINC000952280524    0.1300
     47 H47         2.0952    4.1876   50.3167 H       1  ZINC000952280524    0.1200
     48 H48         1.7426    4.5307   52.8054 H       1  ZINC000952280524    0.1000
     49 H49         0.3966    3.2700   52.7884 H       1  ZINC000952280524    0.1000
     50 H50         2.0433    1.5229   51.9696 H       1  ZINC000952280524    0.1000
     51 H51         3.3893    2.7837   51.9865 H       1  ZINC000952280524    0.1000
     52 H52        -4.7147    2.9009   48.2533 H       1  ZINC000952280524    0.0700
     53 H53        -3.5957    1.6015   47.7669 H       1  ZINC000952280524    0.0900
     54 H54        -4.0523    0.3754   49.8370 H       1  ZINC000952280524    0.0700
     55 H55        -5.5989    0.7552   49.0408 H       1  ZINC000952280524    0.0800
     56 H56        -7.0546    2.6906   52.4808 H       1  ZINC000952280524    0.0700
     57 H57        -5.9987    1.9085   53.6966 H       1  ZINC000952280524    0.0800
@<TRIPOS>BOND
     1     1     2    1
     2     1    27    1
     3     1    28    1
     4     1    29    1
     5     2     3    1
     6     2     4    1
     7     2     5    1
     8     3    30    1
     9     3    31    1
    10     3    32    1
    11     4    33    1
    12     5     6    1
    13     5    34    1
    14     5    35    1
    15     6     7    2
    16     6     8   am
    17     8    26    1
    18     8     9    1
    19     9    10    1
    20     9    36    1
    21     9    37    1
    22    10    11    1
    23    10    38    1
    24    10    39    1
    25    11    12    1
    26    11    13    1
    27    11    26    1
    28    13    25    1
    29    13    14    1
    30    13    40    1
    31    14    15    1
    32    14    41    1
    33    14    42    1
    34    15    16    1
    35    15    43    1
    36    15    44    1
    37    16    17   am
    38    16    24    1
    39    17    18    2
    40    17    19    1
    41    19    20    2
    42    19    45    1
    43    20    21    1
    44    20    46    1
    45    21    23    1
    46    21    22    1
    47    21    47    1
    48    22    23    1
    49    22    48    1
    50    22    49    1
    51    23    50    1
    52    23    51    1
    53    24    25    1
    54    24    52    1
    55    24    53    1
    56    25    54    1
    57    25    55    1
    58    26    56    1
    59    26    57    1
@<TRIPOS>SUBSTRUCTURE
     1 ZINC000952280524        1 TEMP              0 ****  ****    0 ROOT


##########                                Name:    ZINC000460972051
##########                DOCK_Rotatable_Bonds:                  10
##########                         Heavy_Atoms:                  29
##########                    Molecular_Weight:             417.572
##########                DOCK_Rotatable_Bonds:                  10
##########                       Formal_Charge:         3.31551e-07
##########                     HBond_Acceptors:                   7
##########                        HBond_Donors:                   2
##########                         Heavy_Atoms:                  29
##########                          Grid_Score:          -31.301426
##########                     Grid_vdw_energy:          -29.888340
##########                      Grid_es_energy:           -1.413085
##########           Internal_energy_repulsive:           35.746071

@<TRIPOS>MOLECULE
ZINC000460972051
 60 61 1 0 0
SMALL
USER_CHARGES


@<TRIPOS>ATOM
      1 C1          1.4361    0.7507   50.7315 C.3     1  ZINC000460972051   -0.1800
      2 C2          1.9481    2.1922   50.7602 C.3     1  ZINC000460972051    0.1000
      3 N3          1.1926    2.9979   49.7977 N.am    1  ZINC000460972051   -0.6200
      4 C4          0.0553    3.6123   50.1791 C.2     1  ZINC000460972051    0.7100
      5 O5         -0.5709    4.2822   49.3806 O.2     1  ZINC000460972051   -0.5800
      6 N6         -0.3879    3.4841   51.4454 N.am    1  ZINC000460972051   -0.7400
      7 C7         -1.6251    4.1505   51.8595 C.3     1  ZINC000460972051    0.2000
      8 H8         -1.8105    5.0075   51.2119 H       1  ZINC000460972051    0.1100
      9 C9         -2.7936    3.1686   51.7530 C.3     1  ZINC000460972051    0.1100
     10 N10        -3.0803    2.9020   50.3413 N.am    1  ZINC000460972051   -1.1200
     11 S11        -4.5888    3.2081   49.7306 S.o2    1  ZINC000460972051    2.7000
     12 O12        -4.8868    4.5589   50.0557 O.2     1  ZINC000460972051   -0.9500
     13 O13        -4.5915    2.7103   48.3996 O.2     1  ZINC000460972051   -0.9600
     14 C14        -5.7291    2.2152   50.6353 C.ar    1  ZINC000460972051   -0.6900
     15 C15        -5.2758    1.1317   51.3636 C.ar    1  ZINC000460972051   -0.0100
     16 C16        -6.1706    0.3526   52.0735 C.ar    1  ZINC000460972051   -0.1500
     17 C17        -7.5185    0.6577   52.0552 C.ar    1  ZINC000460972051   -0.0200
     18 C18        -8.4939   -0.1917   52.8285 C.3     1  ZINC000460972051   -0.1300
     19 C19        -7.9719    1.7425   51.3277 C.ar    1  ZINC000460972051   -0.1500
     20 C20        -7.0769    2.5235   50.6211 C.ar    1  ZINC000460972051    0.0300
     21 C21        -7.5710    3.7059   49.8282 C.3     1  ZINC000460972051   -0.1700
     22 C22        -1.4906    4.6185   53.2857 C.ar    1  ZINC000460972051   -0.1000
     23 C23        -1.2037    5.9439   53.5540 C.ar    1  ZINC000460972051   -0.1000
     24 C24        -1.0803    6.3732   54.8621 C.ar    1  ZINC000460972051   -0.1200
     25 C25        -1.2442    5.4773   55.9021 C.ar    1  ZINC000460972051   -0.1200
     26 C26        -1.5319    4.1521   55.6337 C.ar    1  ZINC000460972051   -0.1200
     27 C27        -1.6596    3.7237   54.3256 C.ar    1  ZINC000460972051   -0.1000
     28 C28         1.6734    3.1357   48.4208 C.3     1  ZINC000460972051    0.1500
     29 C29         3.2004    3.0416   48.4019 C.3     1  ZINC000460972051   -0.1600
     30 C30         1.0828    2.0173   47.5598 C.3     1  ZINC000460972051   -0.1600
     31 H31         1.9982    0.1512   51.4477 H       1  ZINC000460972051    0.0700
     32 H32         0.3787    0.7355   50.9957 H       1  ZINC000460972051    0.0600
     33 H33         1.5667    0.3386   49.7310 H       1  ZINC000460972051    0.0700
     34 H34         1.8176    2.6044   51.7608 H       1  ZINC000460972051    0.0700
     35 H35         3.0056    2.2075   50.4960 H       1  ZINC000460972051    0.0900
     36 H36         0.1124    2.9507   52.0827 H       1  ZINC000460972051    0.4000
     37 H37        -2.5312    2.2361   52.2529 H       1  ZINC000460972051    0.0900
     38 H38        -3.6750    3.5999   52.2276 H       1  ZINC000460972051    0.0900
     39 H39        -2.3864    2.5462   49.7643 H       1  ZINC000460972051    0.4200
     40 H40        -4.2225    0.8932   51.3779 H       1  ZINC000460972051    0.1400
     41 H41        -5.8164   -0.4946   52.6420 H       1  ZINC000460972051    0.1300
     42 H42        -8.6035    0.2076   53.8368 H       1  ZINC000460972051    0.0800
     43 H43        -9.4615   -0.1820   52.3267 H       1  ZINC000460972051    0.0700
     44 H44        -8.1223   -1.2149   52.8813 H       1  ZINC000460972051    0.0700
     45 H45        -9.0251    1.9812   51.3137 H       1  ZINC000460972051    0.1300
     46 H46        -7.4654    4.6126   50.4239 H       1  ZINC000460972051    0.0900
     47 H47        -6.9847    3.8013   48.9143 H       1  ZINC000460972051    0.1000
     48 H48        -8.6206    3.5592   49.5729 H       1  ZINC000460972051    0.0900
     49 H49        -1.0757    6.6438   52.7416 H       1  ZINC000460972051    0.1200
     50 H50        -0.8554    7.4085   55.0717 H       1  ZINC000460972051    0.1200
     51 H51        -1.1470    5.8126   56.9241 H       1  ZINC000460972051    0.1200
     52 H52        -1.6597    3.4520   56.4461 H       1  ZINC000460972051    0.1200
     53 H53        -1.8844    2.6884   54.1161 H       1  ZINC000460972051    0.1200
     54 H54         1.3641    4.1023   48.0230 H       1  ZINC000460972051    0.1000
     55 H55         3.6213    3.8383   49.0152 H       1  ZINC000460972051    0.0600
     56 H56         3.5098    2.0751   48.7997 H       1  ZINC000460972051    0.0600
     57 H57         3.5582    3.1441   47.3774 H       1  ZINC000460972051    0.0700
     58 H58        -0.0050    2.0844   47.5733 H       1  ZINC000460972051    0.0600
     59 H59         1.4405    2.1199   46.5354 H       1  ZINC000460972051    0.0700
     60 H60         1.3922    1.0508   47.9576 H       1  ZINC000460972051    0.0600
@<TRIPOS>BOND
     1     1     2    1
     2     1    31    1
     3     1    32    1
     4     1    33    1
     5     2     3    1
     6     2    34    1
     7     2    35    1
     8     3     4   am
     9     3    28    1
    10     4     5    2
    11     4     6   am
    12     6     7    1
    13     6    36    1
    14     7     8    1
    15     7     9    1
    16     7    22    1
    17     9    10    1
    18     9    37    1
    19     9    38    1
    20    10    11   am
    21    10    39    1
    22    11    12    2
    23    11    13    2
    24    11    14    1
    25    14    20   ar
    26    14    15   ar
    27    15    16   ar
    28    15    40    1
    29    16    17   ar
    30    16    41    1
    31    17    18    1
    32    17    19   ar
    33    18    42    1
    34    18    43    1
    35    18    44    1
    36    19    20   ar
    37    19    45    1
    38    20    21    1
    39    21    46    1
    40    21    47    1
    41    21    48    1
    42    22    27   ar
    43    22    23   ar
    44    23    24   ar
    45    23    49    1
    46    24    25   ar
    47    24    50    1
    48    25    26   ar
    49    25    51    1
    50    26    27   ar
    51    26    52    1
    52    27    53    1
    53    28    29    1
    54    28    30    1
    55    28    54    1
    56    29    55    1
    57    29    56    1
    58    29    57    1
    59    30    58    1
    60    30    59    1
    61    30    60    1
@<TRIPOS>SUBSTRUCTURE
     1 ZINC000460972051        1 TEMP              0 ****  ****    0 ROOT


##########                                Name:    ZINC001085711660
##########                DOCK_Rotatable_Bonds:                   8
##########                         Heavy_Atoms:                  25
##########                    Molecular_Weight:             347.414
##########                DOCK_Rotatable_Bonds:                   8
##########                       Formal_Charge:         -0.00999993
##########                     HBond_Acceptors:                   7
##########                        HBond_Donors:                   0
##########                         Heavy_Atoms:                  25
##########                          Grid_Score:          -31.300552
##########                     Grid_vdw_energy:          -30.865711
##########                      Grid_es_energy:           -0.434841
##########           Internal_energy_repulsive:           10.428575

@<TRIPOS>MOLECULE
ZINC001085711660
 50 52 1 0 0
SMALL
USER_CHARGES


@<TRIPOS>ATOM
      1 C1          2.4710    1.9747   50.9137 C.3     1  ZINC001085711660    0.0300
      2 O2          1.2055    1.8805   50.2568 O.3     1  ZINC001085711660   -0.3800
      3 C3          0.1926    2.7137   50.8242 C.3     1  ZINC001085711660    0.1400
      4 C4         -1.0681    2.5995   50.0066 C.2     1  ZINC001085711660    0.0100
      5 C5         -1.1250    2.3753   48.6753 C.2     1  ZINC001085711660   -0.1900
      6 C6         -2.4825    2.3407   48.3198 C.2     1  ZINC001085711660   -0.1200
      7 C7         -3.1940    2.5482   49.4666 C.2     1  ZINC001085711660   -0.0700
      8 C8         -4.6556    2.5945   49.5775 C.2     1  ZINC001085711660    0.6000
      9 O9         -5.2403    3.6570   49.4755 O.2     1  ZINC001085711660   -0.5200
     10 N10        -5.3513    1.4603   49.7923 N.am    1  ZINC001085711660   -0.6000
     11 C11        -4.6475    0.1813   49.9152 C.3     1  ZINC001085711660    0.0700
     12 C12        -6.8115    1.5066   49.9031 C.3     1  ZINC001085711660    0.1300
     13 C13        -7.2074    1.6315   51.3756 C.3     1  ZINC001085711660    0.0000
     14 H14        -6.6279    2.3878   51.9052 H       1  ZINC001085711660    0.1000
     15 C15        -7.2691    0.2841   52.1087 C.3     1  ZINC001085711660   -0.1400
     16 C16        -8.5042    0.9014   52.7797 C.3     1  ZINC001085711660    0.0100
     17 N17        -8.6623    1.7531   51.5847 N.3     1  ZINC001085711660   -0.4500
     18 C18        -9.0288    3.1251   51.9607 C.3     1  ZINC001085711660    0.1500
     19 H19        -8.3932    3.4591   52.7808 H       1  ZINC001085711660    0.1000
     20 C20       -10.4929    3.1586   52.4037 C.3     1  ZINC001085711660   -0.1900
     21 C21        -8.8413    4.0377   50.7762 C.2     1  ZINC001085711660    0.2000
     22 N22        -7.9071    4.9369   50.6517 N.2     1  ZINC001085711660   -0.4700
     23 C23        -8.0570    5.5529   49.4657 C.2     1  ZINC001085711660   -0.0400
     24 C24        -9.1198    5.0053   48.8533 C.2     1  ZINC001085711660   -0.0500
     25 C25        -9.6641    5.3804   47.4989 C.3     1  ZINC001085711660   -0.0700
     26 O26        -9.6044    4.0539   49.6753 O.3     1  ZINC001085711660   -0.2000
     27 O27        -2.3169    2.6979   50.4807 O.3     1  ZINC001085711660   -0.1500
     28 H28         2.8324    3.0016   50.8606 H       1  ZINC001085711660    0.0500
     29 H29         2.3610    1.6817   51.9579 H       1  ZINC001085711660    0.0500
     30 H30         3.1849    1.3124   50.4239 H       1  ZINC001085711660    0.0900
     31 H31        -0.0079    2.3964   51.8474 H       1  ZINC001085711660    0.0900
     32 H32         0.5325    3.7494   50.8251 H       1  ZINC001085711660    0.0700
     33 H33        -0.2841    2.2468   48.0098 H       1  ZINC001085711660    0.1600
     34 H34        -2.8860    2.1810   47.3308 H       1  ZINC001085711660    0.1600
     35 H35        -4.2956    0.0572   50.9393 H       1  ZINC001085711660    0.0600
     36 H36        -5.3269   -0.6328   49.6633 H       1  ZINC001085711660    0.0900
     37 H37        -3.7964    0.1682   49.2344 H       1  ZINC001085711660    0.0800
     38 H38        -7.1906    2.3663   49.3507 H       1  ZINC001085711660    0.0900
     39 H39        -7.2364    0.5923   49.4889 H       1  ZINC001085711660    0.0900
     40 H40        -7.4900   -0.5656   51.4629 H       1  ZINC001085711660    0.1000
     41 H41        -6.4346    0.1064   52.7871 H       1  ZINC001085711660    0.0800
     42 H42        -9.3211    0.1938   52.9204 H       1  ZINC001085711660    0.0900
     43 H43        -8.2717    1.4632   53.6844 H       1  ZINC001085711660    0.0800
     44 H44       -11.1183    2.7228   51.6246 H       1  ZINC001085711660    0.0800
     45 H45       -10.6072    2.5862   53.3241 H       1  ZINC001085711660    0.0800
     46 H46       -10.7961    4.1910   52.5779 H       1  ZINC001085711660    0.0700
     47 H47        -7.4352    6.3453   49.0761 H       1  ZINC001085711660    0.1800
     48 H48        -9.1820    4.7731   46.7328 H       1  ZINC001085711660    0.0800
     49 H49       -10.7396    5.2049   47.4782 H       1  ZINC001085711660    0.0800
     50 H50        -9.4641    6.4343   47.3062 H       1  ZINC001085711660    0.0900
@<TRIPOS>BOND
     1     1     2    1
     2     1    28    1
     3     1    29    1
     4     1    30    1
     5     2     3    1
     6     3     4    1
     7     3    31    1
     8     3    32    1
     9     4    27    1
    10     4     5    2
    11     5     6    1
    12     5    33    1
    13     6     7    2
    14     6    34    1
    15     7     8    1
    16     7    27    1
    17     8     9    2
    18     8    10   am
    19    10    11    1
    20    10    12    1
    21    11    35    1
    22    11    36    1
    23    11    37    1
    24    12    13    1
    25    12    38    1
    26    12    39    1
    27    13    14    1
    28    13    17    1
    29    13    15    1
    30    15    16    1
    31    15    40    1
    32    15    41    1
    33    16    17    1
    34    16    42    1
    35    16    43    1
    36    17    18    1
    37    18    19    1
    38    18    20    1
    39    18    21    1
    40    20    44    1
    41    20    45    1
    42    20    46    1
    43    21    26    1
    44    21    22    2
    45    22    23    1
    46    23    24    2
    47    23    47    1
    48    24    25    1
    49    24    26    1
    50    25    48    1
    51    25    49    1
    52    25    50    1
@<TRIPOS>SUBSTRUCTURE
     1 ZINC001085711660        1 TEMP              0 ****  ****    0 ROOT


##########                                Name:    ZINC000967287417
##########                DOCK_Rotatable_Bonds:                   7
##########                         Heavy_Atoms:                  25
##########                    Molecular_Weight:             347.414
##########                DOCK_Rotatable_Bonds:                   7
##########                       Formal_Charge:          -0.0200002
##########                     HBond_Acceptors:                   7
##########                        HBond_Donors:                   1
##########                         Heavy_Atoms:                  25
##########                          Grid_Score:          -31.269041
##########                     Grid_vdw_energy:          -30.358725
##########                      Grid_es_energy:           -0.910317
##########           Internal_energy_repulsive:            6.783438

@<TRIPOS>MOLECULE
ZINC000967287417
 50 52 1 0 0
SMALL
USER_CHARGES


@<TRIPOS>ATOM
      1 C1         -0.5940    1.8582   57.0172 C.3     1  ZINC000967287417    0.0300
      2 O2         -1.6058    2.5186   56.2541 O.3     1  ZINC000967287417   -0.3900
      3 C3         -1.3776    3.9176   56.0738 C.3     1  ZINC000967287417    0.1400
      4 C4         -2.4989    4.5085   55.2586 C.2     1  ZINC000967287417    0.0100
      5 C5         -2.9359    5.7852   55.3305 C.2     1  ZINC000967287417   -0.1900
      6 C6         -3.9862    5.9148   54.4083 C.2     1  ZINC000967287417   -0.1200
      7 C7         -4.1386    4.6954   53.8130 C.2     1  ZINC000967287417   -0.0700
      8 C8         -5.1220    4.3583   52.7787 C.2     1  ZINC000967287417    0.6100
      9 O9         -5.8343    5.2267   52.3101 O.2     1  ZINC000967287417   -0.5200
     10 N10        -5.2372    3.0867   52.3470 N.am    1  ZINC000967287417   -0.7000
     11 C11        -6.2184    2.7502   51.3125 C.3     1  ZINC000967287417    0.1600
     12 H12        -7.0825    3.4084   51.4027 H       1  ZINC000967287417    0.1000
     13 C13        -5.5845    2.9259   49.9307 C.3     1  ZINC000967287417    0.0400
     14 N14        -4.4322    2.0248   49.8012 N.3     1  ZINC000967287417   -0.5300
     15 C15        -3.7157    2.2642   48.5414 C.3     1  ZINC000967287417    0.1300
     16 C16        -2.2460    2.4396   48.8250 C.2     1  ZINC000967287417    0.0200
     17 N17        -1.2594    2.1807   48.0161 N.2     1  ZINC000967287417   -0.3500
     18 O18        -0.1902    2.4231   48.5261 O.3     1  ZINC000967287417    0.1000
     19 C19        -0.3341    2.8875   49.7752 C.2     1  ZINC000967287417   -0.0300
     20 C20         0.7680    3.2955   50.7187 C.3     1  ZINC000967287417   -0.0800
     21 C21        -1.6658    2.9235   50.0199 C.2     1  ZINC000967287417   -0.2400
     22 C22        -4.8419    0.6192   49.9148 C.3     1  ZINC000967287417    0.0500
     23 C23        -5.4537    0.3748   51.2960 C.3     1  ZINC000967287417   -0.1100
     24 C24        -6.6637    1.2954   51.4841 C.3     1  ZINC000967287417   -0.1000
     25 H25        -7.4225    1.0564   50.7389 H       1  ZINC000967287417    0.0900
     26 C26        -7.2437    1.0976   52.8861 C.3     1  ZINC000967287417   -0.1500
     27 O27        -3.2225    3.8565   54.3393 O.3     1  ZINC000967287417   -0.1600
     28 H28        -0.5376    2.3054   58.0097 H       1  ZINC000967287417    0.0500
     29 H29        -0.8403    0.8004   57.1088 H       1  ZINC000967287417    0.0900
     30 H30         0.3677    1.9653   56.5153 H       1  ZINC000967287417    0.0500
     31 H31        -1.3383    4.4077   57.0466 H       1  ZINC000967287417    0.0900
     32 H32        -0.4317    4.0674   55.5531 H       1  ZINC000967287417    0.0700
     33 H33        -2.5498    6.5601   55.9760 H       1  ZINC000967287417    0.1600
     34 H34        -4.5622    6.8063   54.2084 H       1  ZINC000967287417    0.1600
     35 H35        -4.6703    2.3943   52.7214 H       1  ZINC000967287417    0.4100
     36 H36        -6.3192    2.6887   49.1612 H       1  ZINC000967287417    0.0500
     37 H37        -5.2539    3.9577   49.8112 H       1  ZINC000967287417    0.0900
     38 H38        -3.8582    1.4136   47.8750 H       1  ZINC000967287417    0.0600
     39 H39        -4.1044    3.1658   48.0680 H       1  ZINC000967287417    0.0900
     40 H40         1.7332    3.1569   50.2316 H       1  ZINC000967287417    0.0800
     41 H41         0.6449    4.3442   50.9894 H       1  ZINC000967287417    0.0900
     42 H42         0.7230    2.6805   51.6175 H       1  ZINC000967287417    0.0900
     43 H43        -2.1679    3.2419   50.9216 H       1  ZINC000967287417    0.1700
     44 H44        -5.5801    0.3928   49.1454 H       1  ZINC000967287417    0.0400
     45 H45        -3.9720   -0.0244   49.7837 H       1  ZINC000967287417    0.0800
     46 H46        -5.7719   -0.6648   51.3744 H       1  ZINC000967287417    0.0700
     47 H47        -4.7116    0.5876   52.0655 H       1  ZINC000967287417    0.0700
     48 H48        -6.4849    1.3390   53.6305 H       1  ZINC000967287417    0.0600
     49 H49        -8.1045    1.7530   53.0189 H       1  ZINC000967287417    0.0600
     50 H50        -7.5547    0.0601   53.0075 H       1  ZINC000967287417    0.0600
@<TRIPOS>BOND
     1     1     2    1
     2     1    28    1
     3     1    29    1
     4     1    30    1
     5     2     3    1
     6     3     4    1
     7     3    31    1
     8     3    32    1
     9     4    27    1
    10     4     5    2
    11     5     6    1
    12     5    33    1
    13     6     7    2
    14     6    34    1
    15     7     8    1
    16     7    27    1
    17     8     9    2
    18     8    10   am
    19    10    11    1
    20    10    35    1
    21    11    12    1
    22    11    24    1
    23    11    13    1
    24    13    14    1
    25    13    36    1
    26    13    37    1
    27    14    15    1
    28    14    22    1
    29    15    16    1
    30    15    38    1
    31    15    39    1
    32    16    21    1
    33    16    17    2
    34    17    18    1
    35    18    19    1
    36    19    20    1
    37    19    21    2
    38    20    40    1
    39    20    41    1
    40    20    42    1
    41    21    43    1
    42    22    23    1
    43    22    44    1
    44    22    45    1
    45    23    24    1
    46    23    46    1
    47    23    47    1
    48    24    25    1
    49    24    26    1
    50    26    48    1
    51    26    49    1
    52    26    50    1
@<TRIPOS>SUBSTRUCTURE
     1 ZINC000967287417        1 TEMP              0 ****  ****    0 ROOT


##########                                Name:    ZINC000995593866
##########                DOCK_Rotatable_Bonds:                   7
##########                         Heavy_Atoms:                  24
##########                    Molecular_Weight:             342.389
##########                DOCK_Rotatable_Bonds:                   7
##########                       Formal_Charge:                0.03
##########                     HBond_Acceptors:                   8
##########                        HBond_Donors:                   1
##########                         Heavy_Atoms:                  24
##########                          Grid_Score:          -31.267879
##########                     Grid_vdw_energy:          -30.399258
##########                      Grid_es_energy:           -0.868621
##########           Internal_energy_repulsive:           11.150136

@<TRIPOS>MOLECULE
ZINC000995593866
 48 50 1 0 0
SMALL
USER_CHARGES


@<TRIPOS>ATOM
      1 C1         -4.6442    4.7568   50.8517 C.3     1  ZINC000995593866   -0.1400
      2 C2         -3.7629    3.5060   50.8545 C.3     1  ZINC000995593866   -0.0800
      3 C3         -2.3452    3.8565   51.3107 C.3     1  ZINC000995593866   -0.1400
      4 C4         -4.3716    2.4227   51.7707 C.3     1  ZINC000995593866    0.1200
      5 N5         -5.1607    1.5622   50.8588 N.am    1  ZINC000995593866   -0.6300
      6 C6         -6.3658    1.0030   51.0863 C.2     1  ZINC000995593866    0.5400
      7 O7         -6.8877    0.3186   50.2318 O.2     1  ZINC000995593866   -0.5300
      8 C8         -7.0646    1.2283   52.4023 C.3     1  ZINC000995593866   -0.1300
      9 C9         -8.5631    0.9682   52.2350 C.3     1  ZINC000995593866   -0.1000
     10 C10        -8.9501   -0.5138   52.3717 C.3     1  ZINC000995593866   -0.1300
     11 C11       -10.1880   -0.0376   53.1499 C.3     1  ZINC000995593866   -0.1400
     12 C12        -9.3782    1.2177   53.5149 C.3     1  ZINC000995593866   -0.1400
     13 C13        -4.3249    1.4557   49.6404 C.3     1  ZINC000995593866    0.1100
     14 C14        -3.7322    2.8685   49.4498 C.3     1  ZINC000995593866    0.0800
     15 H15        -4.3448    3.4463   48.7579 H       1  ZINC000995593866    0.0700
     16 N16        -2.3512    2.7807   48.9567 N.3     1  ZINC000995593866   -0.6800
     17 C17        -2.2856    2.0061   47.7102 C.3     1  ZINC000995593866    0.1500
     18 C18        -0.8576    1.9425   47.2329 C.2     1  ZINC000995593866    0.1900
     19 N19        -0.3033    0.9659   46.5559 N.2     1  ZINC000995593866   -0.4300
     20 C20         0.9718    1.3434   46.3540 C.2     1  ZINC000995593866    0.0900
     21 C21         2.0285    0.5593   45.6195 C.3     1  ZINC000995593866    0.3800
     22 F22         2.9042    1.4428   44.9795 F       1  ZINC000995593866   -0.1800
     23 F23         2.7424   -0.2275   46.5297 F       1  ZINC000995593866   -0.1700
     24 N24         1.1249    2.5087   46.9083 N.2     1  ZINC000995593866   -0.3400
     25 O25         0.0842    2.8733   47.4136 O.3     1  ZINC000995593866    0.1000
     26 H26        -5.6594    4.4853   50.5622 H       1  ZINC000995593866    0.0600
     27 H27        -4.6558    5.1953   51.8494 H       1  ZINC000995593866    0.0600
     28 H28        -4.2452    5.4809   50.1413 H       1  ZINC000995593866    0.0600
     29 H29        -2.3809    4.2814   52.3138 H       1  ZINC000995593866    0.0700
     30 H30        -1.7330    2.9548   51.3196 H       1  ZINC000995593866    0.0700
     31 H31        -1.9117    4.5833   50.6235 H       1  ZINC000995593866    0.0600
     32 H32        -3.5826    1.8443   52.2513 H       1  ZINC000995593866    0.0800
     33 H33        -5.0198    2.8784   52.5192 H       1  ZINC000995593866    0.0900
     34 H34        -6.6590    0.5472   53.1503 H       1  ZINC000995593866    0.0900
     35 H35        -6.9084    2.2576   52.7252 H       1  ZINC000995593866    0.0900
     36 H36        -8.9802    1.4501   51.3508 H       1  ZINC000995593866    0.1000
     37 H37        -9.1889   -0.9920   51.4217 H       1  ZINC000995593866    0.0700
     38 H38        -8.2515   -1.0937   52.9748 H       1  ZINC000995593866    0.0800
     39 H39       -11.0501    0.1681   52.5155 H       1  ZINC000995593866    0.0800
     40 H40       -10.4323   -0.6643   54.0076 H       1  ZINC000995593866    0.0700
     41 H41        -8.7968    1.1112   54.4307 H       1  ZINC000995593866    0.0800
     42 H42        -9.9627    2.1374   53.4881 H       1  ZINC000995593866    0.0700
     43 H43        -3.5286    0.7262   49.7883 H       1  ZINC000995593866    0.0900
     44 H44        -4.9379    1.1818   48.7817 H       1  ZINC000995593866    0.0800
     45 H45        -1.9523    3.6991   48.8331 H       1  ZINC000995593866    0.3600
     46 H46        -2.6538    0.9961   47.8903 H       1  ZINC000995593866    0.1200
     47 H47        -2.9015    2.4873   46.9506 H       1  ZINC000995593866    0.0800
     48 H48         1.5542   -0.0833   44.8776 H       1  ZINC000995593866    0.1500
@<TRIPOS>BOND
     1     1     2    1
     2     1    26    1
     3     1    27    1
     4     1    28    1
     5     2    14    1
     6     2     3    1
     7     2     4    1
     8     3    29    1
     9     3    30    1
    10     3    31    1
    11     4     5    1
    12     4    32    1
    13     4    33    1
    14     5     6   am
    15     5    13    1
    16     6     7    2
    17     6     8    1
    18     8     9    1
    19     8    34    1
    20     8    35    1
    21     9    12    1
    22     9    10    1
    23     9    36    1
    24    10    11    1
    25    10    37    1
    26    10    38    1
    27    11    12    1
    28    11    39    1
    29    11    40    1
    30    12    41    1
    31    12    42    1
    32    13    14    1
    33    13    43    1
    34    13    44    1
    35    14    15    1
    36    14    16    1
    37    16    17    1
    38    16    45    1
    39    17    18    1
    40    17    46    1
    41    17    47    1
    42    18    25    1
    43    18    19    2
    44    19    20    1
    45    20    21    1
    46    20    24    2
    47    21    22    1
    48    21    23    1
    49    21    48    1
    50    24    25    1
@<TRIPOS>SUBSTRUCTURE
     1 ZINC000995593866        1 TEMP              0 ****  ****    0 ROOT


##########                                Name:    ZINC000676564986
##########                DOCK_Rotatable_Bonds:                   5
##########                         Heavy_Atoms:                  25
##########                    Molecular_Weight:             347.444
##########                DOCK_Rotatable_Bonds:                   5
##########                       Formal_Charge:          -0.0100005
##########                     HBond_Acceptors:                   6
##########                        HBond_Donors:                   1
##########                         Heavy_Atoms:                  25
##########                          Grid_Score:          -31.254137
##########                     Grid_vdw_energy:          -30.673960
##########                      Grid_es_energy:           -0.580178
##########           Internal_energy_repulsive:            2.802799

@<TRIPOS>MOLECULE
ZINC000676564986
 42 45 1 0 0
SMALL
USER_CHARGES


@<TRIPOS>ATOM
      1 C1          0.9573    3.4056   50.8138 C.3     1  ZINC000676564986    0.0800
      2 N2         -0.4872    3.1615   50.8266 N.pl3   1  ZINC000676564986   -0.4800
      3 C3         -1.3183    3.2943   51.8989 C.2     1  ZINC000676564986    0.2500
      4 N4         -2.5380    2.9972   51.5556 N.2     1  ZINC000676564986   -0.4600
      5 C5         -2.5671    2.6559   50.2449 C.ar    1  ZINC000676564986   -0.1100
      6 C6         -3.5734    2.2535   49.3507 C.ar    1  ZINC000676564986    0.5100
      7 N7         -4.8872    2.1364   49.7695 N.pl3   1  ZINC000676564986   -0.6900
      8 C8         -5.4628    0.8115   50.0139 C.3     1  ZINC000676564986    0.1700
      9 C9         -6.6088    0.9331   50.9850 C.ar    1  ZINC000676564986   -0.0800
     10 C10        -7.4466    2.0320   50.9293 C.ar    1  ZINC000676564986   -0.1100
     11 C11        -8.4976    2.1467   51.8174 C.ar    1  ZINC000676564986   -0.0700
     12 C12        -8.7131    1.1562   52.7681 C.ar    1  ZINC000676564986   -0.1300
     13 S13       -10.0533    1.2980   53.9031 S.3     1  ZINC000676564986   -0.0100
     14 C14        -9.2935    0.9638   55.4574 C.ar    1  ZINC000676564986   -0.1000
     15 C15        -9.7743   -0.0629   56.2611 C.ar    1  ZINC000676564986   -0.1200
     16 C16        -9.1762   -0.3223   57.4783 C.ar    1  ZINC000676564986   -0.1000
     17 C17        -8.0999    0.4381   57.8979 C.ar    1  ZINC000676564986   -0.1200
     18 C18        -7.6188    1.4608   57.1007 C.ar    1  ZINC000676564986   -0.1000
     19 C19        -8.2086    1.7225   55.8799 C.ar    1  ZINC000676564986   -0.1000
     20 C20        -7.8691    0.0533   52.8211 C.ar    1  ZINC000676564986   -0.0700
     21 C21        -6.8235   -0.0575   51.9261 C.ar    1  ZINC000676564986   -0.1100
     22 N22        -3.2343    1.9884   48.0933 N.ar    1  ZINC000676564986   -0.5900
     23 C23        -1.9835    2.0980   47.6847 C.ar    1  ZINC000676564986    0.3600
     24 N24        -1.0083    2.4708   48.4867 N.ar    1  ZINC000676564986   -0.5600
     25 C25        -1.2526    2.7628   49.7599 C.ar    1  ZINC000676564986    0.3000
     26 H26         1.1471    4.4495   50.5640 H       1  ZINC000676564986    0.0800
     27 H27         1.3715    3.1865   51.7980 H       1  ZINC000676564986    0.0900
     28 H28         1.4279    2.7627   50.0700 H       1  ZINC000676564986    0.0900
     29 H29        -1.0100    3.6003   52.8876 H       1  ZINC000676564986    0.2200
     30 H30        -5.4271    2.9314   49.9013 H       1  ZINC000676564986    0.4200
     31 H31        -5.8251    0.3939   49.0746 H       1  ZINC000676564986    0.0800
     32 H32        -4.6997    0.1555   50.4328 H       1  ZINC000676564986    0.0800
     33 H33        -7.2784    2.8016   50.1904 H       1  ZINC000676564986    0.1300
     34 H34        -9.1513    3.0053   51.7736 H       1  ZINC000676564986    0.1400
     35 H35       -10.6150   -0.6570   55.9343 H       1  ZINC000676564986    0.1200
     36 H36        -9.5495   -1.1199   58.1036 H       1  ZINC000676564986    0.1300
     37 H37        -7.6342    0.2332   58.8506 H       1  ZINC000676564986    0.1300
     38 H38        -6.7782    2.0526   57.4314 H       1  ZINC000676564986    0.1300
     39 H39        -7.8322    2.5210   55.2577 H       1  ZINC000676564986    0.1300
     40 H40        -8.0336   -0.7183   53.5586 H       1  ZINC000676564986    0.1300
     41 H41        -6.1673   -0.9142   51.9667 H       1  ZINC000676564986    0.1300
     42 H42        -1.7516    1.8728   46.6543 H       1  ZINC000676564986    0.2000
@<TRIPOS>BOND
     1     1     2    1
     2     1    26    1
     3     1    27    1
     4     1    28    1
     5     2    25    1
     6     2     3    1
     7     3     4    2
     8     3    29    1
     9     4     5    1
    10     5    25   ar
    11     5     6   ar
    12     6     7    1
    13     6    22   ar
    14     7     8    1
    15     7    30    1
    16     8     9    1
    17     8    31    1
    18     8    32    1
    19     9    21   ar
    20     9    10   ar
    21    10    11   ar
    22    10    33    1
    23    11    12   ar
    24    11    34    1
    25    12    13    1
    26    12    20   ar
    27    13    14    1
    28    14    19   ar
    29    14    15   ar
    30    15    16   ar
    31    15    35    1
    32    16    17   ar
    33    16    36    1
    34    17    18   ar
    35    17    37    1
    36    18    19   ar
    37    18    38    1
    38    19    39    1
    39    20    21   ar
    40    20    40    1
    41    21    41    1
    42    22    23   ar
    43    23    24   ar
    44    23    42    1
    45    24    25   ar
@<TRIPOS>SUBSTRUCTURE
     1 ZINC000676564986        1 TEMP              0 ****  ****    0 ROOT


##########                                Name:    ZINC000464867530
##########                DOCK_Rotatable_Bonds:                   8
##########                         Heavy_Atoms:                  30
##########                    Molecular_Weight:              422.49
##########                DOCK_Rotatable_Bonds:                   8
##########                       Formal_Charge:         -0.00999994
##########                     HBond_Acceptors:                   7
##########                        HBond_Donors:                   0
##########                         Heavy_Atoms:                  30
##########                          Grid_Score:          -31.241047
##########                     Grid_vdw_energy:          -30.749887
##########                      Grid_es_energy:           -0.491160
##########           Internal_energy_repulsive:           29.297430

@<TRIPOS>MOLECULE
ZINC000464867530
 59 62 1 0 0
SMALL
USER_CHARGES


@<TRIPOS>ATOM
      1 C1         -8.7643    0.0543   63.4081 C.3     1  ZINC000464867530   -0.1500
      2 C2         -8.3427    0.2351   61.9485 C.3     1  ZINC000464867530   -0.1400
      3 C3         -9.5408   -0.0316   61.0349 C.3     1  ZINC000464867530    0.0900
      4 N4         -9.1388    0.1483   59.6376 N.am    1  ZINC000464867530   -0.6100
      5 C5         -8.7475   -1.0116   58.8328 C.3     1  ZINC000464867530    0.0700
      6 C6         -9.9995   -1.6878   58.2704 C.3     1  ZINC000464867530    0.4300
      7 F7        -10.7597   -0.7488   57.5651 F       1  ZINC000464867530   -0.1700
      8 F8         -9.6228   -2.7242   57.4095 F       1  ZINC000464867530   -0.1800
      9 F9        -10.7605   -2.2087   59.3224 F       1  ZINC000464867530   -0.1800
     10 C10        -9.1291    1.3810   59.0927 C.2     1  ZINC000464867530    0.5300
     11 O11        -9.4531    2.3412   59.7591 O.2     1  ZINC000464867530   -0.5100
     12 C12        -8.7157    1.5662   57.6554 C.3     1  ZINC000464867530   -0.1200
     13 H13        -8.9564    0.6666   57.0888 H       1  ZINC000464867530    0.1000
     14 C14        -7.2090    1.8253   57.5865 C.3     1  ZINC000464867530   -0.1200
     15 C15        -6.7827    1.9810   56.1250 C.3     1  ZINC000464867530   -0.1300
     16 C16        -7.5084    3.1821   55.5107 C.3     1  ZINC000464867530    0.1000
     17 N17        -8.9549    3.0092   55.7023 N.am    1  ZINC000464867530   -0.6100
     18 C18        -9.7992    3.0755   54.6538 C.2     1  ZINC000464867530    0.5500
     19 O19       -10.9912    2.9326   54.8251 O.2     1  ZINC000464867530   -0.5300
     20 C20        -9.2619    3.3273   53.2685 C.3     1  ZINC000464867530   -0.1700
     21 H21        -8.4753    4.0787   53.1984 H       1  ZINC000464867530    0.1300
     22 C22       -10.2441    3.2202   52.0986 C.3     1  ZINC000464867530   -0.1300
     23 C23        -9.1888    2.1404   52.3151 C.3     1  ZINC000464867530   -0.0600
     24 C24        -9.5792    0.7259   52.7749 C.3     1  ZINC000464867530   -0.0900
     25 C25        -8.2557   -0.0515   52.6001 C.3     1  ZINC000464867530   -0.0800
     26 C26        -7.4946    0.6957   51.5253 C.ar    1  ZINC000464867530   -0.0900
     27 C27        -6.4171    0.3014   50.7510 C.ar    1  ZINC000464867530   -0.1100
     28 C28        -5.8766    1.1654   49.8184 C.ar    1  ZINC000464867530   -0.1100
     29 C29        -6.4130    2.4288   49.6570 C.ar    1  ZINC000464867530   -0.1200
     30 C30        -7.4885    2.8248   50.4282 C.ar    1  ZINC000464867530   -0.1000
     31 C31        -8.0325    1.9609   51.3635 C.ar    1  ZINC000464867530   -0.0700
     32 C32        -9.4640    2.7621   57.0582 C.3     1  ZINC000464867530    0.1300
     33 H33        -9.5648    0.7553   63.6446 H       1  ZINC000464867530    0.0600
     34 H34        -9.1175   -0.9655   63.5607 H       1  ZINC000464867530    0.0600
     35 H35        -7.9108    0.2444   64.0590 H       1  ZINC000464867530    0.0600
     36 H36        -7.9895    1.2549   61.7960 H       1  ZINC000464867530    0.0700
     37 H37        -7.5422   -0.4658   61.7120 H       1  ZINC000464867530    0.0700
     38 H38        -9.8907   -1.0531   61.1837 H       1  ZINC000464867530    0.0900
     39 H39       -10.3431    0.6660   61.2749 H       1  ZINC000464867530    0.0900
     40 H40        -8.1105   -0.6851   58.0107 H       1  ZINC000464867530    0.1300
     41 H41        -8.2015   -1.7192   59.4567 H       1  ZINC000464867530    0.1200
     42 H42        -6.9722    2.7383   58.1331 H       1  ZINC000464867530    0.0800
     43 H43        -6.6754    0.9863   58.0331 H       1  ZINC000464867530    0.0800
     44 H44        -5.7058    2.1423   56.0754 H       1  ZINC000464867530    0.0900
     45 H45        -7.0416    1.0779   55.5723 H       1  ZINC000464867530    0.0700
     46 H46        -7.1815    4.0978   56.0034 H       1  ZINC000464867530    0.0700
     47 H47        -7.2851    3.2382   54.4453 H       1  ZINC000464867530    0.0900
     48 H48       -11.2786    2.9677   52.3311 H       1  ZINC000464867530    0.1100
     49 H49       -10.1030    3.9006   51.2588 H       1  ZINC000464867530    0.1100
     50 H50        -9.8919    0.7297   53.8191 H       1  ZINC000464867530    0.0700
     51 H51       -10.3597    0.3119   52.1365 H       1  ZINC000464867530    0.0800
     52 H52        -7.6912   -0.0514   53.5324 H       1  ZINC000464867530    0.0800
     53 H53        -8.4572   -1.0735   52.2792 H       1  ZINC000464867530    0.0800
     54 H54        -5.9970   -0.6856   50.8768 H       1  ZINC000464867530    0.1200
     55 H55        -5.0357    0.8540   49.2164 H       1  ZINC000464867530    0.1300
     56 H56        -5.9916    3.1060   48.9289 H       1  ZINC000464867530    0.1300
     57 H57        -7.9063    3.8126   50.3013 H       1  ZINC000464867530    0.1200
     58 H58       -10.5305    2.5416   57.0135 H       1  ZINC000464867530    0.1000
     59 H59        -9.2966    3.6433   57.6776 H       1  ZINC000464867530    0.0800
@<TRIPOS>BOND
     1     1     2    1
     2     1    33    1
     3     1    34    1
     4     1    35    1
     5     2     3    1
     6     2    36    1
     7     2    37    1
     8     3     4    1
     9     3    38    1
    10     3    39    1
    11     4     5    1
    12     4    10   am
    13     5     6    1
    14     5    40    1
    15     5    41    1
    16     6     7    1
    17     6     8    1
    18     6     9    1
    19    10    11    2
    20    10    12    1
    21    12    13    1
    22    12    32    1
    23    12    14    1
    24    14    15    1
    25    14    42    1
    26    14    43    1
    27    15    16    1
    28    15    44    1
    29    15    45    1
    30    16    17    1
    31    16    46    1
    32    16    47    1
    33    17    18   am
    34    17    32    1
    35    18    19    2
    36    18    20    1
    37    20    21    1
    38    20    23    1
    39    20    22    1
    40    22    23    1
    41    22    48    1
    42    22    49    1
    43    23    31    1
    44    23    24    1
    45    24    25    1
    46    24    50    1
    47    24    51    1
    48    25    26    1
    49    25    52    1
    50    25    53    1
    51    26    31   ar
    52    26    27   ar
    53    27    28   ar
    54    27    54    1
    55    28    29   ar
    56    28    55    1
    57    29    30   ar
    58    29    56    1
    59    30    31   ar
    60    30    57    1
    61    32    58    1
    62    32    59    1
@<TRIPOS>SUBSTRUCTURE
     1 ZINC000464867530        1 TEMP              0 ****  ****    0 ROOT


##########                                Name:    ZINC000864730443
##########                DOCK_Rotatable_Bonds:                  10
##########                         Heavy_Atoms:                  25
##########                    Molecular_Weight:             356.462
##########                DOCK_Rotatable_Bonds:                  10
##########                       Formal_Charge:           0.0299988
##########                     HBond_Acceptors:                   7
##########                        HBond_Donors:                   2
##########                         Heavy_Atoms:                  25
##########                          Grid_Score:          -31.239664
##########                     Grid_vdw_energy:          -30.985901
##########                      Grid_es_energy:           -0.253763
##########           Internal_energy_repulsive:           26.310648

@<TRIPOS>MOLECULE
ZINC000864730443
 57 58 1 0 0
SMALL
USER_CHARGES


@<TRIPOS>ATOM
      1 C1        -10.7561    2.3712   53.7294 C.3     1  ZINC000864730443   -0.1800
      2 C2         -9.7685    1.2026   53.7412 C.3     1  ZINC000864730443    0.1400
      3 C3         -8.5819    1.5467   54.6436 C.3     1  ZINC000864730443   -0.1800
      4 C4        -10.4673   -0.0503   54.2732 C.3     1  ZINC000864730443   -0.1400
      5 O5         -9.2944    0.9561   52.3911 O.3     1  ZINC000864730443   -0.3600
      6 C6         -8.0125    0.5675   52.2548 C.2     1  ZINC000864730443    0.6500
      7 O7         -7.6860   -0.5646   52.5522 O.2     1  ZINC000864730443   -0.5700
      8 N8         -7.0917    1.4341   51.7886 N.am    1  ZINC000864730443   -0.7100
      9 C9         -5.6971    1.0107   51.6386 C.3     1  ZINC000864730443    0.1500
     10 C10        -5.0237    1.8496   50.5507 C.3     1  ZINC000864730443   -0.1300
     11 C11        -6.0245    2.8122   49.9652 C.2     1  ZINC000864730443    0.5300
     12 O12        -6.7011    2.4800   49.0150 O.2     1  ZINC000864730443   -0.5300
     13 N13        -6.1676    4.0421   50.4973 N.am    1  ZINC000864730443   -0.7200
     14 C14        -7.1405    4.9779   49.9281 C.3     1  ZINC000864730443    0.1200
     15 C15        -8.5486    4.5892   50.3832 C.3     1  ZINC000864730443   -0.1300
     16 C16        -9.5738    5.1200   49.3791 C.3     1  ZINC000864730443    0.0800
     17 H17       -10.5847    4.8821   49.7100 H       1  ZINC000864730443    0.0800
     18 C18        -9.4117    6.6509   49.2034 C.3     1  ZINC000864730443   -0.1500
     19 C19       -10.0119    6.8499   47.7849 C.3     1  ZINC000864730443   -0.1600
     20 C20        -9.5993    5.5460   47.0686 C.3     1  ZINC000864730443    0.0500
     21 O21        -9.3313    4.5631   48.0774 O.3     1  ZINC000864730443   -0.3800
     22 C22        -3.8542    2.6310   51.1573 C.3     1  ZINC000864730443   -0.1000
     23 C23        -3.1404    3.4056   50.0451 C.3     1  ZINC000864730443   -0.1600
     24 C24        -2.6841    2.4242   48.9623 C.3     1  ZINC000864730443    0.0600
     25 O25        -3.8155    1.7086   48.4624 O.3     1  ZINC000864730443   -0.3700
     26 C26        -4.4946    0.9283   49.4484 C.3     1  ZINC000864730443    0.0800
     27 H27       -10.2583    3.2638   53.3506 H       1  ZINC000864730443    0.0900
     28 H28       -11.6015    2.1261   53.0866 H       1  ZINC000864730443    0.0600
     29 H29       -11.1119    2.5562   54.7429 H       1  ZINC000864730443    0.0700
     30 H30        -8.9379    1.7318   55.6571 H       1  ZINC000864730443    0.0700
     31 H31        -7.8784    0.7142   54.6520 H       1  ZINC000864730443    0.0600
     32 H32        -8.0841    2.4393   54.2646 H       1  ZINC000864730443    0.0900
     33 H33       -11.3127   -0.2955   53.6302 H       1  ZINC000864730443    0.0700
     34 H34        -9.7637   -0.8828   54.2815 H       1  ZINC000864730443    0.0700
     35 H35       -10.8232    0.1348   55.2866 H       1  ZINC000864730443    0.0800
     36 H36        -7.3521    2.3381   51.5524 H       1  ZINC000864730443    0.4100
     37 H37        -5.1713    1.1507   52.5831 H       1  ZINC000864730443    0.0900
     38 H38        -5.6653   -0.0419   51.3575 H       1  ZINC000864730443    0.0800
     39 H39        -5.6265    4.3078   51.2573 H       1  ZINC000864730443    0.4000
     40 H40        -6.9146    5.9885   50.2686 H       1  ZINC000864730443    0.0700
     41 H41        -7.0870    4.9406   48.8400 H       1  ZINC000864730443    0.0700
     42 H42        -8.6249    3.5034   50.4408 H       1  ZINC000864730443    0.0800
     43 H43        -8.7449    5.0198   51.3650 H       1  ZINC000864730443    0.0800
     44 H44        -9.9860    7.1953   49.9530 H       1  ZINC000864730443    0.0900
     45 H45        -8.3611    6.9403   49.2295 H       1  ZINC000864730443    0.0800
     46 H46       -11.0971    6.9400   47.8320 H       1  ZINC000864730443    0.0800
     47 H47        -9.5704    7.7179   47.2951 H       1  ZINC000864730443    0.0800
     48 H48       -10.4115    5.2036   46.4273 H       1  ZINC000864730443    0.0700
     49 H49        -8.7035    5.7192   46.4723 H       1  ZINC000864730443    0.0700
     50 H50        -4.2309    3.3296   51.9044 H       1  ZINC000864730443    0.0800
     51 H51        -3.1554    1.9371   51.6247 H       1  ZINC000864730443    0.0800
     52 H52        -3.8254    4.1340   49.6113 H       1  ZINC000864730443    0.0900
     53 H53        -2.2734    3.9208   50.4587 H       1  ZINC000864730443    0.0800
     54 H54        -2.2133    2.9747   48.1479 H       1  ZINC000864730443    0.1000
     55 H55        -1.9681    1.7210   49.3876 H       1  ZINC000864730443    0.0500
     56 H56        -3.8022    0.2055   49.8800 H       1  ZINC000864730443    0.0700
     57 H57        -5.3280    0.4012   48.9840 H       1  ZINC000864730443    0.1000
@<TRIPOS>BOND
     1     1     2    1
     2     1    27    1
     3     1    28    1
     4     1    29    1
     5     2     3    1
     6     2     4    1
     7     2     5    1
     8     3    30    1
     9     3    31    1
    10     3    32    1
    11     4    33    1
    12     4    34    1
    13     4    35    1
    14     5     6    1
    15     6     7    2
    16     6     8   am
    17     8     9    1
    18     8    36    1
    19     9    10    1
    20     9    37    1
    21     9    38    1
    22    10    26    1
    23    10    11    1
    24    10    22    1
    25    11    12    2
    26    11    13   am
    27    13    14    1
    28    13    39    1
    29    14    15    1
    30    14    40    1
    31    14    41    1
    32    15    16    1
    33    15    42    1
    34    15    43    1
    35    16    17    1
    36    16    21    1
    37    16    18    1
    38    18    19    1
    39    18    44    1
    40    18    45    1
    41    19    20    1
    42    19    46    1
    43    19    47    1
    44    20    21    1
    45    20    48    1
    46    20    49    1
    47    22    23    1
    48    22    50    1
    49    22    51    1
    50    23    24    1
    51    23    52    1
    52    23    53    1
    53    24    25    1
    54    24    54    1
    55    24    55    1
    56    25    26    1
    57    26    56    1
    58    26    57    1
@<TRIPOS>SUBSTRUCTURE
     1 ZINC000864730443        1 TEMP              0 ****  ****    0 ROOT


##########                                Name:    ZINC000444811358
##########                DOCK_Rotatable_Bonds:                  11
##########                         Heavy_Atoms:                  27
##########                    Molecular_Weight:             374.455
##########                DOCK_Rotatable_Bonds:                  11
##########                       Formal_Charge:          0.00999966
##########                     HBond_Acceptors:                   6
##########                        HBond_Donors:                   2
##########                         Heavy_Atoms:                  27
##########                          Grid_Score:          -31.220133
##########                     Grid_vdw_energy:          -30.876122
##########                      Grid_es_energy:           -0.344012
##########           Internal_energy_repulsive:           28.238331

@<TRIPOS>MOLECULE
ZINC000444811358
 54 55 1 0 0
SMALL
USER_CHARGES


@<TRIPOS>ATOM
      1 C1         -2.4765    2.6819   49.3093 C.3     1  ZINC000444811358   -0.1100
      2 C2         -3.8401    2.2873   49.8150 C.ar    1  ZINC000444811358   -0.1300
      3 C3         -4.3600    1.0459   49.5000 C.ar    1  ZINC000444811358   -0.0700
      4 C4         -5.6100    0.6810   49.9615 C.ar    1  ZINC000444811358   -0.1500
      5 C5         -6.3454    1.5620   50.7433 C.ar    1  ZINC000444811358    0.1700
      6 N6         -7.6114    1.1939   51.2120 N.am    1  ZINC000444811358   -0.6800
      7 C7         -7.7553    0.0846   51.9638 C.2     1  ZINC000444811358    0.5200
      8 O8         -6.7875   -0.5946   52.2342 O.2     1  ZINC000444811358   -0.5000
      9 C9         -9.1189   -0.3118   52.4685 C.3     1  ZINC000444811358    0.0200
     10 N10        -9.6500    0.7521   53.3310 N.3     1  ZINC000444811358   -0.5000
     11 C11       -11.1188    0.7648   53.3074 C.3     1  ZINC000444811358    0.0200
     12 C12       -11.6024    1.3130   51.9632 C.3     1  ZINC000444811358    0.1100
     13 H13       -10.7433    1.5265   51.3275 H       1  ZINC000444811358    0.1200
     14 O14       -12.4372    0.3438   51.3263 O.3     1  ZINC000444811358   -0.5400
     15 C15       -12.3986    2.5991   52.1937 C.3     1  ZINC000444811358    0.0300
     16 O16       -12.9451    3.0499   50.9526 O.3     1  ZINC000444811358   -0.3000
     17 C17       -12.0744    3.5684   50.0472 C.ar    1  ZINC000444811358    0.1300
     18 C18       -10.7628    3.8303   50.4156 C.ar    1  ZINC000444811358   -0.2100
     19 C19        -9.8795    4.3569   49.4931 C.ar    1  ZINC000444811358   -0.0800
     20 C20       -10.3018    4.6232   48.2038 C.ar    1  ZINC000444811358   -0.1600
     21 C21       -11.6085    4.3634   47.8342 C.ar    1  ZINC000444811358   -0.0800
     22 C22       -12.4941    3.8311   48.7512 C.ar    1  ZINC000444811358   -0.1500
     23 C23        -9.1468    0.6169   54.7045 C.3     1  ZINC000444811358    0.0700
     24 C24        -9.2293    1.9703   55.4135 C.3     1  ZINC000444811358   -0.1400
     25 C25        -9.9958   -0.4073   55.4602 C.3     1  ZINC000444811358   -0.1900
     26 C26        -5.8222    2.8087   51.0596 C.ar    1  ZINC000444811358   -0.1500
     27 C27        -4.5680    3.1671   50.5993 C.ar    1  ZINC000444811358    0.1200
     28 F28        -4.0572    4.3796   50.9059 F       1  ZINC000444811358   -0.1300
     29 H29        -1.7192    2.3786   50.0321 H       1  ZINC000444811358    0.0700
     30 H30        -2.2862    2.1898   48.3555 H       1  ZINC000444811358    0.0700
     31 H31        -2.4377    3.7628   49.1745 H       1  ZINC000444811358    0.0700
     32 H32        -3.7884    0.3603   48.8920 H       1  ZINC000444811358    0.1400
     33 H33        -6.0152   -0.2891   49.7141 H       1  ZINC000444811358    0.1300
     34 H34        -8.3854    1.7370   50.9958 H       1  ZINC000444811358    0.4100
     35 H35        -9.7896   -0.4627   51.6227 H       1  ZINC000444811358    0.1300
     36 H36        -9.0402   -1.2370   53.0395 H       1  ZINC000444811358    0.0700
     37 H37       -11.4931   -0.2499   53.4419 H       1  ZINC000444811358    0.0500
     38 H38       -11.4897    1.3988   54.1128 H       1  ZINC000444811358    0.1000
     39 H39       -12.9185    0.6826   50.5589 H       1  ZINC000444811358    0.3700
     40 H40       -13.2077    2.4044   52.8976 H       1  ZINC000444811358    0.0600
     41 H41       -11.7397    3.3663   52.6006 H       1  ZINC000444811358    0.0700
     42 H42       -10.4326    3.6231   51.4228 H       1  ZINC000444811358    0.1300
     43 H43        -8.8583    4.5610   49.7794 H       1  ZINC000444811358    0.1200
     44 H44        -9.6098    5.0352   47.4841 H       1  ZINC000444811358    0.1200
     45 H45       -11.9360    4.5726   46.8265 H       1  ZINC000444811358    0.1300
     46 H46       -13.5147    3.6284   48.4621 H       1  ZINC000444811358    0.1300
     47 H47        -8.1097    0.2821   54.6801 H       1  ZINC000444811358    0.0900
     48 H48       -10.2751    2.2426   55.5559 H       1  ZINC000444811358    0.0500
     49 H49        -8.7360    1.9031   56.3830 H       1  ZINC000444811358    0.0600
     50 H50        -8.7357    2.7292   54.8064 H       1  ZINC000444811358    0.0700
     51 H51        -9.9370   -1.3714   54.9551 H       1  ZINC000444811358    0.0500
     52 H52        -9.6223   -0.5076   56.4792 H       1  ZINC000444811358    0.0700
     53 H53       -11.0328   -0.0726   55.4845 H       1  ZINC000444811358    0.0600
     54 H54        -6.3920    3.4961   51.6671 H       1  ZINC000444811358    0.1500
@<TRIPOS>BOND
     1     1     2    1
     2     1    29    1
     3     1    30    1
     4     1    31    1
     5     2    27   ar
     6     2     3   ar
     7     3     4   ar
     8     3    32    1
     9     4     5   ar
    10     4    33    1
    11     5     6    1
    12     5    26   ar
    13     6     7   am
    14     6    34    1
    15     7     8    2
    16     7     9    1
    17     9    10    1
    18     9    35    1
    19     9    36    1
    20    10    11    1
    21    10    23    1
    22    11    12    1
    23    11    37    1
    24    11    38    1
    25    12    13    1
    26    12    14    1
    27    12    15    1
    28    14    39    1
    29    15    16    1
    30    15    40    1
    31    15    41    1
    32    16    17    1
    33    17    22   ar
    34    17    18   ar
    35    18    19   ar
    36    18    42    1
    37    19    20   ar
    38    19    43    1
    39    20    21   ar
    40    20    44    1
    41    21    22   ar
    42    21    45    1
    43    22    46    1
    44    23    24    1
    45    23    25    1
    46    23    47    1
    47    24    48    1
    48    24    49    1
    49    24    50    1
    50    25    51    1
    51    25    52    1
    52    25    53    1
    53    26    27   ar
    54    26    54    1
    55    27    28    1
@<TRIPOS>SUBSTRUCTURE
     1 ZINC000444811358        1 TEMP              0 ****  ****    0 ROOT


##########                                Name:    ZINC000572148596
##########                DOCK_Rotatable_Bonds:                   4
##########                         Heavy_Atoms:                  26
##########                    Molecular_Weight:             371.463
##########                DOCK_Rotatable_Bonds:                   4
##########                       Formal_Charge:          -0.0199999
##########                     HBond_Acceptors:                   8
##########                        HBond_Donors:                   0
##########                         Heavy_Atoms:                  26
##########                          Grid_Score:          -31.214682
##########                     Grid_vdw_energy:          -30.905054
##########                      Grid_es_energy:           -0.309628
##########           Internal_energy_repulsive:            9.444594

@<TRIPOS>MOLECULE
ZINC000572148596
 47 50 1 0 0
SMALL
USER_CHARGES


@<TRIPOS>ATOM
      1 C1         -3.0268    4.2071   50.4088 C.3     1  ZINC000572148596   -0.1400
      2 C2         -2.6159    2.7353   50.3298 C.3     1  ZINC000572148596    0.0800
      3 H3         -1.9278    2.5061   51.1435 H       1  ZINC000572148596    0.1200
      4 C4         -3.8405    1.8649   50.4471 C.2     1  ZINC000572148596    0.1800
      5 N5         -4.1557    0.8742   49.6658 N.2     1  ZINC000572148596   -0.3500
      6 O6         -5.2007    0.3703   50.0195 O.3     1  ZINC000572148596    0.0900
      7 C7         -5.6704    1.0138   51.0998 C.2     1  ZINC000572148596    0.2300
      8 C8         -6.9137    0.7105   51.8357 C.ar    1  ZINC000572148596   -0.1200
      9 C9         -7.7748   -0.3027   51.3900 C.ar    1  ZINC000572148596   -0.0100
     10 C10        -8.9173   -0.5499   52.1037 C.ar    1  ZINC000572148596   -0.1900
     11 C11        -9.1891    0.2056   53.2420 C.ar    1  ZINC000572148596    0.3400
     12 N12       -10.3444   -0.0422   53.9671 N.3     1  ZINC000572148596   -0.4700
     13 C13       -11.2262    1.1341   53.9716 C.3     1  ZINC000572148596    0.0300
     14 C14       -12.5127    0.7980   54.7305 C.3     1  ZINC000572148596    0.0900
     15 H15       -13.1449    1.6842   54.7856 H       1  ZINC000572148596    0.1100
     16 C16       -13.2606   -0.3184   53.9988 C.3     1  ZINC000572148596   -0.1800
     17 O17       -12.1811    0.3649   56.0525 O.3     1  ZINC000572148596   -0.3700
     18 C18       -11.3238   -0.7794   56.0855 C.3     1  ZINC000572148596    0.0800
     19 H19       -11.8217   -1.6211   55.6040 H       1  ZINC000572148596    0.0700
     20 C20       -11.0053   -1.1374   57.5385 C.3     1  ZINC000572148596   -0.1400
     21 C21       -10.0253   -0.4592   55.3402 C.3     1  ZINC000572148596    0.0300
     22 N22        -8.3580    1.1580   53.6419 N.ar    1  ZINC000572148596   -0.5200
     23 C23        -7.2461    1.4239   52.9880 C.ar    1  ZINC000572148596    0.1900
     24 N24        -4.7995    1.9682   51.3800 N.2     1  ZINC000572148596   -0.4700
     25 C25        -1.9377    2.4732   49.0098 C.2     1  ZINC000572148596    0.0400
     26 N26        -2.5487    2.1949   47.9080 N.2     1  ZINC000572148596   -0.4500
     27 C27        -1.8021    1.9938   46.8410 C.2     1  ZINC000572148596    0.0400
     28 C28        -0.4878    2.1089   47.0546 C.2     1  ZINC000572148596   -0.2500
     29 S29        -0.2476    2.5088   48.7538 S.3     1  ZINC000572148596    0.1400
     30 H30        -3.7147    4.4364   49.5949 H       1  ZINC000572148596    0.0800
     31 H31        -3.5172    4.3966   51.3635 H       1  ZINC000572148596    0.0700
     32 H32        -2.1410    4.8366   50.3240 H       1  ZINC000572148596    0.0800
     33 H33        -7.5426   -0.8749   50.5040 H       1  ZINC000572148596    0.1500
     34 H34        -9.6014   -1.3231   51.7867 H       1  ZINC000572148596    0.1500
     35 H35       -10.7209    1.9659   54.4624 H       1  ZINC000572148596    0.0600
     36 H36       -11.4703    1.4098   52.9456 H       1  ZINC000572148596    0.1000
     37 H37       -12.6285   -1.2048   53.9453 H       1  ZINC000572148596    0.0700
     38 H38       -14.1764   -0.5573   54.5395 H       1  ZINC000572148596    0.0600
     39 H39       -13.5097    0.0116   52.9902 H       1  ZINC000572148596    0.0700
     40 H40       -11.9307   -1.3618   58.0687 H       1  ZINC000572148596    0.0700
     41 H41       -10.3519   -2.0096   57.5629 H       1  ZINC000572148596    0.0700
     42 H42       -10.5060   -0.2959   58.0189 H       1  ZINC000572148596    0.0600
     43 H43        -9.3929   -1.3465   55.3135 H       1  ZINC000572148596    0.1000
     44 H44        -9.5009    0.3471   55.8530 H       1  ZINC000572148596    0.0600
     45 H45        -6.5910    2.2067   53.3410 H       1  ZINC000572148596    0.1700
     46 H46        -2.2179    1.7552   45.8733 H       1  ZINC000572148596    0.1800
     47 H47         0.2895    1.9829   46.3155 H       1  ZINC000572148596    0.1800
@<TRIPOS>BOND
     1     1     2    1
     2     1    30    1
     3     1    31    1
     4     1    32    1
     5     2     3    1
     6     2     4    1
     7     2    25    1
     8     4    24    1
     9     4     5    2
    10     5     6    1
    11     6     7    1
    12     7     8    1
    13     7    24    2
    14     8    23   ar
    15     8     9   ar
    16     9    10   ar
    17     9    33    1
    18    10    11   ar
    19    10    34    1
    20    11    12    1
    21    11    22   ar
    22    12    21    1
    23    12    13    1
    24    13    14    1
    25    13    35    1
    26    13    36    1
    27    14    15    1
    28    14    16    1
    29    14    17    1
    30    16    37    1
    31    16    38    1
    32    16    39    1
    33    17    18    1
    34    18    19    1
    35    18    20    1
    36    18    21    1
    37    20    40    1
    38    20    41    1
    39    20    42    1
    40    21    43    1
    41    21    44    1
    42    22    23   ar
    43    23    45    1
    44    25    29    1
    45    25    26    2
    46    26    27    1
    47    27    28    2
    48    27    46    1
    49    28    29    1
    50    28    47    1
@<TRIPOS>SUBSTRUCTURE
     1 ZINC000572148596        1 TEMP              0 ****  ****    0 ROOT


##########                                Name:    ZINC000457806032
##########                DOCK_Rotatable_Bonds:                   8
##########                         Heavy_Atoms:                  24
##########                    Molecular_Weight:             387.911
##########                DOCK_Rotatable_Bonds:                   8
##########                       Formal_Charge:        -1.49012e-07
##########                     HBond_Acceptors:                   9
##########                        HBond_Donors:                   2
##########                         Heavy_Atoms:                  24
##########                          Grid_Score:          -31.211281
##########                     Grid_vdw_energy:          -30.662472
##########                      Grid_es_energy:           -0.548809
##########           Internal_energy_repulsive:            6.428766

@<TRIPOS>MOLECULE
ZINC000457806032
 42 43 1 0 0
SMALL
USER_CHARGES


@<TRIPOS>ATOM
      1 C1        -10.6735   -0.2749   58.6791 C.3     1  ZINC000457806032    0.0800
      2 N2         -9.5514    0.3886   59.3477 N.am    1  ZINC000457806032   -1.0100
      3 C3         -9.8036    1.3303   60.4412 C.3     1  ZINC000457806032    0.0900
      4 S4         -7.9981    0.0740   58.8675 S.o2    1  ZINC000457806032    2.7900
      5 O5         -7.1653    0.9698   59.5908 O.2     1  ZINC000457806032   -0.9700
      6 O6         -7.8430   -1.3379   58.9106 O.2     1  ZINC000457806032   -0.9700
      7 N7         -7.8801    0.5089   57.2740 N.am    1  ZINC000457806032   -1.1300
      8 C8         -8.1389    1.8936   56.8716 C.3     1  ZINC000457806032    0.1100
      9 C9         -8.8609    1.9062   55.5228 C.3     1  ZINC000457806032    0.1100
     10 N10        -7.8978    1.6422   54.4509 N.am    1  ZINC000457806032   -0.7300
     11 C11        -8.3076    1.0659   53.3036 C.2     1  ZINC000457806032    0.5800
     12 O12        -9.4774    0.7663   53.1575 O.2     1  ZINC000457806032   -0.5300
     13 C13        -7.3393    0.7990   52.2270 C.2     1  ZINC000457806032   -0.1500
     14 C14        -7.4791   -0.2260   51.3405 C.2     1  ZINC000457806032   -0.2200
     15 S15        -6.1813   -0.2411   50.2335 S.3     1  ZINC000457806032    0.2400
     16 C16        -5.4448    1.1634   50.9894 C.2     1  ZINC000457806032   -0.1700
     17 C17        -4.1836    1.7996   50.5513 C.ar    1  ZINC000457806032   -0.0100
     18 C18        -3.7756    1.7022   49.2204 C.ar    1  ZINC000457806032   -0.0900
     19 C19        -2.5982    2.2976   48.8175 C.ar    1  ZINC000457806032   -0.1000
     20 C20        -1.8217    2.9903   49.7309 C.ar    1  ZINC000457806032   -0.0300
     21 Cl21       -0.3410    3.7366   49.2166 Cl      1  ZINC000457806032   -0.0600
     22 C22        -2.2217    3.0907   51.0526 C.ar    1  ZINC000457806032   -0.1000
     23 C23        -3.4000    2.5042   51.4659 C.ar    1  ZINC000457806032   -0.1000
     24 C24        -6.1992    1.5772   52.0199 C.2     1  ZINC000457806032   -0.0700
     25 H25       -11.0047    0.3321   57.8365 H       1  ZINC000457806032    0.0600
     26 H26       -10.3549   -1.2532   58.3191 H       1  ZINC000457806032    0.0800
     27 H27       -11.4957   -0.3973   59.3841 H       1  ZINC000457806032    0.0800
     28 H28        -9.8132    0.7924   61.3891 H       1  ZINC000457806032    0.0600
     29 H29        -9.0171    2.0848   60.4595 H       1  ZINC000457806032    0.0700
     30 H30       -10.7681    1.8146   60.2885 H       1  ZINC000457806032    0.0700
     31 H31        -7.6395   -0.1530   56.6072 H       1  ZINC000457806032    0.4200
     32 H32        -8.7625    2.3795   57.6221 H       1  ZINC000457806032    0.0700
     33 H33        -7.1936    2.4290   56.7828 H       1  ZINC000457806032    0.0900
     34 H34        -9.6320    1.1359   55.5162 H       1  ZINC000457806032    0.0800
     35 H35        -9.3208    2.8819   55.3660 H       1  ZINC000457806032    0.0800
     36 H36        -6.9651    1.8823   54.5669 H       1  ZINC000457806032    0.4000
     37 H37        -8.2975   -0.9308   51.3389 H       1  ZINC000457806032    0.1700
     38 H38        -4.3802    1.1615   48.5072 H       1  ZINC000457806032    0.1400
     39 H39        -2.2814    2.2230   47.7877 H       1  ZINC000457806032    0.1400
     40 H40        -1.6119    3.6322   51.7606 H       1  ZINC000457806032    0.1400
     41 H41        -3.7112    2.5834   52.4971 H       1  ZINC000457806032    0.1300
     42 H42        -5.9437    2.4270   52.6356 H       1  ZINC000457806032    0.1600
@<TRIPOS>BOND
     1     1     2    1
     2     1    25    1
     3     1    26    1
     4     1    27    1
     5     2     3    1
     6     2     4   am
     7     3    28    1
     8     3    29    1
     9     3    30    1
    10     4     5    2
    11     4     6    2
    12     4     7   am
    13     7     8    1
    14     7    31    1
    15     8     9    1
    16     8    32    1
    17     8    33    1
    18     9    10    1
    19     9    34    1
    20     9    35    1
    21    10    11   am
    22    10    36    1
    23    11    12    2
    24    11    13    1
    25    13    24    1
    26    13    14    2
    27    14    15    1
    28    14    37    1
    29    15    16    1
    30    16    17    1
    31    16    24    2
    32    17    23   ar
    33    17    18   ar
    34    18    19   ar
    35    18    38    1
    36    19    20   ar
    37    19    39    1
    38    20    21    1
    39    20    22   ar
    40    22    23   ar
    41    22    40    1
    42    23    41    1
    43    24    42    1
@<TRIPOS>SUBSTRUCTURE
     1 ZINC000457806032        1 TEMP              0 ****  ****    0 ROOT


##########                                Name:    ZINC001015955459
##########                DOCK_Rotatable_Bonds:                   6
##########                         Heavy_Atoms:                  24
##########                    Molecular_Weight:             347.844
##########                DOCK_Rotatable_Bonds:                   6
##########                       Formal_Charge:          -0.0200002
##########                     HBond_Acceptors:                   6
##########                        HBond_Donors:                   1
##########                         Heavy_Atoms:                  24
##########                          Grid_Score:          -31.202692
##########                     Grid_vdw_energy:          -30.221605
##########                      Grid_es_energy:           -0.981086
##########           Internal_energy_repulsive:           12.138792

@<TRIPOS>MOLECULE
ZINC001015955459
 46 48 1 0 0
SMALL
USER_CHARGES


@<TRIPOS>ATOM
      1 C1         -7.3594    3.1150   54.9750 C.3     1  ZINC001015955459   -0.1500
      2 C2         -7.2226    1.6692   55.4565 C.3     1  ZINC001015955459   -0.0300
      3 C3         -7.0209    1.6537   56.9731 C.3     1  ZINC001015955459   -0.1500
      4 C4         -8.4728    0.9033   55.1082 C.2     1  ZINC001015955459    0.0600
      5 C5         -8.7219    0.2463   53.9426 C.2     1  ZINC001015955459   -0.0800
      6 C6         -7.8190    0.1498   52.7814 C.2     1  ZINC001015955459    0.6100
      7 O7         -7.9857   -0.7244   51.9524 O.2     1  ZINC001015955459   -0.5300
      8 N8         -6.8087    1.0303   52.6382 N.am    1  ZINC001015955459   -0.7100
      9 C9         -5.9125    0.9355   51.4833 C.3     1  ZINC001015955459    0.1400
     10 H10        -5.6137   -0.1001   51.3207 H       1  ZINC001015955459    0.1000
     11 C11        -6.6012    1.4986   50.2230 C.3     1  ZINC001015955459   -0.1300
     12 C12        -5.7157    2.6818   49.7768 C.3     1  ZINC001015955459    0.0200
     13 N13        -4.3767    2.3830   50.3465 N.3     1  ZINC001015955459   -0.4900
     14 C14        -3.5631    3.6021   50.4467 C.3     1  ZINC001015955459    0.0800
     15 C15        -2.1039    3.2428   50.3346 C.ar    1  ZINC001015955459   -0.1100
     16 C16        -1.2914    3.2960   51.4516 C.ar    1  ZINC001015955459   -0.1100
     17 C17         0.0464    2.9617   51.3505 C.ar    1  ZINC001015955459   -0.1000
     18 C18         0.5744    2.5846   50.1304 C.ar    1  ZINC001015955459   -0.1100
     19 C19        -0.2373    2.5363   49.0107 C.ar    1  ZINC001015955459   -0.0300
     20 Cl20        0.4254    2.0633   47.4775 Cl      1  ZINC001015955459   -0.0700
     21 C21        -1.5769    2.8656   49.1136 C.ar    1  ZINC001015955459   -0.1000
     22 C22        -4.6689    1.8255   51.6951 C.3     1  ZINC001015955459    0.0100
     23 N23        -9.9636   -0.2998   54.0487 N.2     1  ZINC001015955459   -0.4600
     24 C24       -10.4458   -0.0026   55.2182 C.2     1  ZINC001015955459    0.1800
     25 O25        -9.5527    0.7388   55.8888 O.3     1  ZINC001015955459   -0.1900
     26 H26        -8.2173    3.5799   55.4604 H       1  ZINC001015955459    0.0600
     27 H27        -6.4550    3.6689   55.2269 H       1  ZINC001015955459    0.0700
     28 H28        -7.5030    3.1261   53.8946 H       1  ZINC001015955459    0.0600
     29 H29        -6.3645    1.2042   54.9711 H       1  ZINC001015955459    0.1300
     30 H30        -6.9234    0.6236   57.3161 H       1  ZINC001015955459    0.0600
     31 H31        -6.1165    2.2076   57.2250 H       1  ZINC001015955459    0.0700
     32 H32        -7.8788    2.1186   57.4585 H       1  ZINC001015955459    0.0600
     33 H33        -6.6751    1.7269   53.3000 H       1  ZINC001015955459    0.4100
     34 H34        -6.6405    0.7394   49.4419 H       1  ZINC001015955459    0.0800
     35 H35        -7.6061    1.8455   50.4638 H       1  ZINC001015955459    0.0700
     36 H36        -5.6640    2.7288   48.6889 H       1  ZINC001015955459    0.0900
     37 H37        -6.1004    3.6181   50.1807 H       1  ZINC001015955459    0.0500
     38 H38        -3.8320    4.2855   49.6413 H       1  ZINC001015955459    0.0900
     39 H39        -3.7461    4.0830   51.4077 H       1  ZINC001015955459    0.0900
     40 H40        -1.7026    3.5949   52.4044 H       1  ZINC001015955459    0.1300
     41 H41         0.6798    2.9995   52.2244 H       1  ZINC001015955459    0.1300
     42 H42         1.6204    2.3280   50.0507 H       1  ZINC001015955459    0.1300
     43 H43        -2.2109    2.8286   48.2399 H       1  ZINC001015955459    0.1300
     44 H44        -4.8908    2.6276   52.3990 H       1  ZINC001015955459    0.0700
     45 H45        -3.8298    1.2276   52.0509 H       1  ZINC001015955459    0.0900
     46 H46       -11.4148   -0.3016   55.5894 H       1  ZINC001015955459    0.2600
@<TRIPOS>BOND
     1     1     2    1
     2     1    26    1
     3     1    27    1
     4     1    28    1
     5     2     3    1
     6     2     4    1
     7     2    29    1
     8     3    30    1
     9     3    31    1
    10     3    32    1
    11     4    25    1
    12     4     5    2
    13     5     6    1
    14     5    23    1
    15     6     7    2
    16     6     8   am
    17     8     9    1
    18     8    33    1
    19     9    10    1
    20     9    22    1
    21     9    11    1
    22    11    12    1
    23    11    34    1
    24    11    35    1
    25    12    13    1
    26    12    36    1
    27    12    37    1
    28    13    14    1
    29    13    22    1
    30    14    15    1
    31    14    38    1
    32    14    39    1
    33    15    21   ar
    34    15    16   ar
    35    16    17   ar
    36    16    40    1
    37    17    18   ar
    38    17    41    1
    39    18    19   ar
    40    18    42    1
    41    19    20    1
    42    19    21   ar
    43    21    43    1
    44    22    44    1
    45    22    45    1
    46    23    24    2
    47    24    25    1
    48    24    46    1
@<TRIPOS>SUBSTRUCTURE
     1 ZINC001015955459        1 TEMP              0 ****  ****    0 ROOT


##########                                Name:    ZINC000919225759
##########                DOCK_Rotatable_Bonds:                   4
##########                         Heavy_Atoms:                  27
##########                    Molecular_Weight:             375.295
##########                DOCK_Rotatable_Bonds:                   4
##########                       Formal_Charge:                0.04
##########                     HBond_Acceptors:                  11
##########                        HBond_Donors:                   0
##########                         Heavy_Atoms:                  27
##########                          Grid_Score:          -31.185028
##########                     Grid_vdw_energy:          -30.469105
##########                      Grid_es_energy:           -0.715924
##########           Internal_energy_repulsive:           13.783087

@<TRIPOS>MOLECULE
ZINC000919225759
 40 41 1 0 0
SMALL
USER_CHARGES


@<TRIPOS>ATOM
      1 C1         -1.5662    3.3982   52.4972 C.3     1  ZINC000919225759   -0.1500
      2 C2         -1.4646    3.0213   51.0416 C.ar    1  ZINC000919225759    0.0900
      3 C3         -2.6083    3.0072   50.2410 C.ar    1  ZINC000919225759   -0.1200
      4 C4         -3.9216    3.3615   50.8172 C.2     1  ZINC000919225759    0.5200
      5 O5         -4.2401    4.5281   50.9312 O.2     1  ZINC000919225759   -0.4700
      6 O6         -4.7660    2.3907   51.2162 O.3     1  ZINC000919225759   -0.3400
      7 C7         -6.1847    2.6290   51.0191 C.3     1  ZINC000919225759    0.1400
      8 H8         -6.4234    3.6548   51.3001 H       1  ZINC000919225759    0.1100
      9 C9         -6.5394    2.4079   49.5473 C.3     1  ZINC000919225759   -0.1700
     10 C10        -6.9780    1.6760   51.8757 C.ar    1  ZINC000919225759   -0.1000
     11 C11        -7.4723    0.5056   51.3315 C.ar    1  ZINC000919225759   -0.0400
     12 C12        -8.2001   -0.3686   52.1173 C.ar    1  ZINC000919225759   -0.1100
     13 C13        -8.4329   -0.0725   53.4470 C.ar    1  ZINC000919225759   -0.0500
     14 C14        -7.9375    1.0978   53.9916 C.ar    1  ZINC000919225759   -0.0400
     15 N15        -8.1872    1.4152   55.4156 N.pl3   1  ZINC000919225759    0.0300
     16 O16        -8.8290    0.6453   56.1077 O.2     1  ZINC000919225759   -0.1500
     17 O17        -7.7509    2.4462   55.8954 O.2     1  ZINC000919225759   -0.1500
     18 C18        -7.2063    1.9697   53.2071 C.ar    1  ZINC000919225759   -0.0400
     19 C19        -2.5051    2.6573   48.8931 C.ar    1  ZINC000919225759    0.0500
     20 C20        -1.2757    2.3280   48.3616 C.ar    1  ZINC000919225759   -0.0600
     21 N21        -1.1642    1.9573   46.9329 N.pl3   1  ZINC000919225759    0.0300
     22 O22        -2.1575    1.9430   46.2281 O.2     1  ZINC000919225759   -0.1300
     23 O23        -0.0793    1.6662   46.4621 O.2     1  ZINC000919225759   -0.1300
     24 C24        -0.1461    2.3440   49.1608 C.ar    1  ZINC000919225759    0.0400
     25 C25        -0.2404    2.6949   50.4957 C.ar    1  ZINC000919225759   -0.0500
     26 N26         0.9734    2.7097   51.3428 N.pl3   1  ZINC000919225759    0.0200
     27 O27         1.8324    1.8597   51.1910 O.2     1  ZINC000919225759   -0.1300
     28 O28         1.1131    3.5719   52.1916 O.2     1  ZINC000919225759   -0.1200
     29 H29        -1.5515    4.4839   52.5932 H       1  ZINC000919225759    0.1200
     30 H30        -2.4976    3.0097   52.9090 H       1  ZINC000919225759    0.1200
     31 H31        -0.7230    2.9738   53.0421 H       1  ZINC000919225759    0.0900
     32 H32        -6.3009    1.3821   49.2663 H       1  ZINC000919225759    0.0700
     33 H33        -7.6045    2.5867   49.3993 H       1  ZINC000919225759    0.0900
     34 H34        -5.9657    3.0971   48.9277 H       1  ZINC000919225759    0.0700
     35 H35        -7.2905    0.2743   50.2924 H       1  ZINC000919225759    0.1500
     36 H36        -8.5870   -1.2828   51.6919 H       1  ZINC000919225759    0.1500
     37 H37        -9.0020   -0.7552   54.0607 H       1  ZINC000919225759    0.1600
     38 H38        -6.8194    2.8840   53.6325 H       1  ZINC000919225759    0.1600
     39 H39        -3.3859    2.6440   48.2683 H       1  ZINC000919225759    0.1900
     40 H40         0.8141    2.0850   48.7396 H       1  ZINC000919225759    0.1900
@<TRIPOS>BOND
     1     1     2    1
     2     1    29    1
     3     1    30    1
     4     1    31    1
     5     2    25   ar
     6     2     3   ar
     7     3     4    1
     8     3    19   ar
     9     4     5    2
    10     4     6    1
    11     6     7    1
    12     7     8    1
    13     7     9    1
    14     7    10    1
    15     9    32    1
    16     9    33    1
    17     9    34    1
    18    10    18   ar
    19    10    11   ar
    20    11    12   ar
    21    11    35    1
    22    12    13   ar
    23    12    36    1
    24    13    14   ar
    25    13    37    1
    26    14    15    1
    27    14    18   ar
    28    15    16    2
    29    15    17    2
    30    18    38    1
    31    19    20   ar
    32    19    39    1
    33    20    21    1
    34    20    24   ar
    35    21    22    2
    36    21    23    2
    37    24    25   ar
    38    24    40    1
    39    25    26    1
    40    26    27    2
    41    26    28    2
@<TRIPOS>SUBSTRUCTURE
     1 ZINC000919225759        1 TEMP              0 ****  ****    0 ROOT


##########                                Name:    ZINC000555499135
##########                DOCK_Rotatable_Bonds:                   8
##########                         Heavy_Atoms:                  26
##########                    Molecular_Weight:             377.554
##########                DOCK_Rotatable_Bonds:                   8
##########                       Formal_Charge:           0.0399999
##########                     HBond_Acceptors:                   7
##########                        HBond_Donors:                   0
##########                         Heavy_Atoms:                  26
##########                          Grid_Score:          -31.181763
##########                     Grid_vdw_energy:          -30.720737
##########                      Grid_es_energy:           -0.461025
##########           Internal_energy_repulsive:            9.958286

@<TRIPOS>MOLECULE
ZINC000555499135
 57 59 1 0 0
SMALL
USER_CHARGES


@<TRIPOS>ATOM
      1 C1         -3.7514    2.5404   50.4068 C.3     1  ZINC000555499135   -0.1500
      2 C2         -4.8367    1.8751   49.5581 C.3     1  ZINC000555499135   -0.0500
      3 C3         -6.0066    1.5098   50.4349 C.2     1  ZINC000555499135   -0.2100
      4 C4         -7.0101    2.3200   50.7848 C.2     1  ZINC000555499135    0.0300
      5 N5         -7.9165    1.7628   51.5624 N.2     1  ZINC000555499135   -0.4500
      6 C6         -7.7335    0.5277   51.8877 C.2     1  ZINC000555499135    0.0400
      7 C7         -8.6560   -0.2790   52.7648 C.3     1  ZINC000555499135    0.1500
      8 N8         -9.5010    0.6286   53.5523 N.3     1  ZINC000555499135   -0.4500
      9 C9        -10.7637    0.9092   52.8560 C.3     1  ZINC000555499135    0.0100
     10 C10        -9.7353    0.1161   54.8183 C.2     1  ZINC000555499135    0.3500
     11 N11        -9.9835   -1.1369   55.1188 N.2     1  ZINC000555499135   -0.3100
     12 N12       -10.1504   -1.2568   56.3875 N.2     1  ZINC000555499135   -0.2900
     13 C13       -10.0196   -0.0971   56.9670 C.2     1  ZINC000555499135    0.2100
     14 C14       -10.1414    0.1828   58.4427 C.3     1  ZINC000555499135   -0.0300
     15 C15        -8.7625    0.0770   59.0974 C.3     1  ZINC000555499135   -0.0900
     16 C16        -8.7487    0.8922   60.3920 C.3     1  ZINC000555499135   -0.1500
     17 C17        -8.4597   -1.3889   59.4145 C.3     1  ZINC000555499135   -0.1500
     18 N18        -9.7454    0.8179   55.9885 N.pl3   1  ZINC000555499135   -0.4600
     19 C19        -9.5182    2.2549   56.1599 C.3     1  ZINC000555499135    0.1100
     20 C20        -8.0161    2.5422   56.1191 C.3     1  ZINC000555499135    0.0700
     21 H21        -7.4642    1.6102   56.2417 H       1  ZINC000555499135    0.0700
     22 C22        -7.6496    3.5052   57.2515 C.3     1  ZINC000555499135   -0.1500
     23 C23        -6.1560    3.8350   57.1674 C.3     1  ZINC000555499135   -0.1200
     24 C24        -5.8505    4.4200   55.7851 C.3     1  ZINC000555499135   -0.1600
     25 C25        -6.2866    3.4217   54.7094 C.3     1  ZINC000555499135    0.0600
     26 O26        -7.6779    3.1346   54.8634 O.3     1  ZINC000555499135   -0.3700
     27 S27        -6.2969   -0.0633   51.1736 S.3     1  ZINC000555499135    0.1200
     28 H28        -4.1537    3.4415   50.8698 H       1  ZINC000555499135    0.0600
     29 H29        -3.4220    1.8492   51.1826 H       1  ZINC000555499135    0.0600
     30 H30        -2.9052    2.8047   49.7726 H       1  ZINC000555499135    0.0700
     31 H31        -5.1659    2.5663   48.7823 H       1  ZINC000555499135    0.0900
     32 H32        -4.4343    0.9741   49.0950 H       1  ZINC000555499135    0.0800
     33 H33        -7.0730    3.3471   50.4573 H       1  ZINC000555499135    0.1800
     34 H34        -9.2865   -0.9138   52.1422 H       1  ZINC000555499135    0.0800
     35 H35        -8.0658   -0.9012   53.4376 H       1  ZINC000555499135    0.1200
     36 H36       -11.3597   -0.0020   52.8032 H       1  ZINC000555499135    0.0500
     37 H37       -11.3170    1.6741   53.4009 H       1  ZINC000555499135    0.0800
     38 H38       -10.5515    1.2636   51.8473 H       1  ZINC000555499135    0.0900
     39 H39       -10.5375    1.1875   58.5905 H       1  ZINC000555499135    0.1000
     40 H40       -10.8156   -0.5439   58.8959 H       1  ZINC000555499135    0.1000
     41 H41        -8.0059    0.4650   58.4155 H       1  ZINC000555499135    0.0800
     42 H42        -9.0037    1.9287   60.1714 H       1  ZINC000555499135    0.0500
     43 H43        -9.4776    0.4792   61.0893 H       1  ZINC000555499135    0.0600
     44 H44        -7.7548    0.8496   60.8376 H       1  ZINC000555499135    0.0600
     45 H45        -8.4696   -1.9697   58.4922 H       1  ZINC000555499135    0.0600
     46 H46        -7.4774   -1.4643   59.8809 H       1  ZINC000555499135    0.0600
     47 H47        -9.2165   -1.7769   60.0964 H       1  ZINC000555499135    0.0600
     48 H48       -10.0142    2.7995   55.3564 H       1  ZINC000555499135    0.1100
     49 H49        -9.9234    2.5749   57.1198 H       1  ZINC000555499135    0.1200
     50 H50        -8.2311    4.4218   57.1526 H       1  ZINC000555499135    0.0800
     51 H51        -7.8657    3.0373   58.2119 H       1  ZINC000555499135    0.0800
     52 H52        -5.8997    4.5637   57.9365 H       1  ZINC000555499135    0.0700
     53 H53        -5.5730    2.9261   57.3157 H       1  ZINC000555499135    0.0600
     54 H54        -6.3958    5.3550   55.6567 H       1  ZINC000555499135    0.0700
     55 H55        -4.7802    4.6062   55.6968 H       1  ZINC000555499135    0.0800
     56 H56        -6.1109    3.8506   53.7229 H       1  ZINC000555499135    0.1000
     57 H57        -5.7120    2.5013   54.8135 H       1  ZINC000555499135    0.0500
@<TRIPOS>BOND
     1     1     2    1
     2     1    28    1
     3     1    29    1
     4     1    30    1
     5     2     3    1
     6     2    31    1
     7     2    32    1
     8     3    27    1
     9     3     4    2
    10     4     5    1
    11     4    33    1
    12     5     6    2
    13     6     7    1
    14     6    27    1
    15     7     8    1
    16     7    34    1
    17     7    35    1
    18     8     9    1
    19     8    10    1
    20     9    36    1
    21     9    37    1
    22     9    38    1
    23    10    18    1
    24    10    11    2
    25    11    12    1
    26    12    13    2
    27    13    14    1
    28    13    18    1
    29    14    15    1
    30    14    39    1
    31    14    40    1
    32    15    16    1
    33    15    17    1
    34    15    41    1
    35    16    42    1
    36    16    43    1
    37    16    44    1
    38    17    45    1
    39    17    46    1
    40    17    47    1
    41    18    19    1
    42    19    20    1
    43    19    48    1
    44    19    49    1
    45    20    21    1
    46    20    26    1
    47    20    22    1
    48    22    23    1
    49    22    50    1
    50    22    51    1
    51    23    24    1
    52    23    52    1
    53    23    53    1
    54    24    25    1
    55    24    54    1
    56    24    55    1
    57    25    26    1
    58    25    56    1
    59    25    57    1
@<TRIPOS>SUBSTRUCTURE
     1 ZINC000555499135        1 TEMP              0 ****  ****    0 ROOT


##########                                Name:    ZINC000441887161
##########                DOCK_Rotatable_Bonds:                   6
##########                         Heavy_Atoms:                  27
##########                    Molecular_Weight:             383.514
##########                DOCK_Rotatable_Bonds:                   6
##########                       Formal_Charge:          -0.0300002
##########                     HBond_Acceptors:                   6
##########                        HBond_Donors:                   1
##########                         Heavy_Atoms:                  27
##########                          Grid_Score:          -31.155230
##########                     Grid_vdw_energy:          -31.761223
##########                      Grid_es_energy:            0.605993
##########           Internal_energy_repulsive:           20.552681

@<TRIPOS>MOLECULE
ZINC000441887161
 52 54 1 0 0
SMALL
USER_CHARGES


@<TRIPOS>ATOM
      1 C1         -1.6676    5.2231   55.5906 C.3     1  ZINC000441887161   -0.1200
      2 C2         -2.5086    4.6570   54.4756 C.ar    1  ZINC000441887161   -0.0700
      3 C3         -2.0182    3.6281   53.6940 C.ar    1  ZINC000441887161   -0.1200
      4 C4         -2.7898    3.1088   52.6711 C.ar    1  ZINC000441887161   -0.0900
      5 C5         -4.0519    3.6182   52.4304 C.ar    1  ZINC000441887161   -0.1100
      6 C6         -4.8928    3.0524   51.3152 C.3     1  ZINC000441887161    0.1900
      7 H7         -5.9482    3.1574   51.5667 H       1  ZINC000441887161    0.1000
      8 C8         -4.5994    3.8117   50.0197 C.3     1  ZINC000441887161    0.1000
      9 N9         -3.3065    3.3799   49.4826 N.pl3   1  ZINC000441887161   -0.4600
     10 C10        -3.1022    2.4097   48.5389 C.2     1  ZINC000441887161   -0.0500
     11 C11        -1.7726    2.3357   48.3377 C.2     1  ZINC000441887161   -0.0200
     12 N12        -1.1813    3.2360   49.1369 N.2     1  ZINC000441887161   -0.4900
     13 C13        -2.0942    3.8687   49.8220 C.2     1  ZINC000441887161    0.1800
     14 N14        -4.5728    1.6344   51.1334 N.am    1  ZINC000441887161   -1.1100
     15 S15        -5.6786    0.6190   50.4346 S.o2    1  ZINC000441887161    2.6900
     16 O16        -6.0425    1.2131   49.1962 O.2     1  ZINC000441887161   -0.9600
     17 O17        -5.1415   -0.6924   50.5395 O.2     1  ZINC000441887161   -0.9500
     18 C18        -7.1229    0.6472   51.4434 C.ar    1  ZINC000441887161   -0.6800
     19 C19        -7.3940   -0.4096   52.2920 C.ar    1  ZINC000441887161   -0.0300
     20 C20        -8.5273   -0.3875   53.0835 C.ar    1  ZINC000441887161   -0.1300
     21 C21        -9.3891    0.6916   53.0266 C.ar    1  ZINC000441887161   -0.0200
     22 C22       -10.6247    0.7156   53.8890 C.3     1  ZINC000441887161   -0.1300
     23 C23        -9.1172    1.7494   52.1787 C.ar    1  ZINC000441887161   -0.1000
     24 C24       -10.0566    2.9262   52.1170 C.3     1  ZINC000441887161   -0.1200
     25 C25        -7.9823    1.7290   51.3903 C.ar    1  ZINC000441887161   -0.0100
     26 C26        -4.5431    4.6465   53.2132 C.ar    1  ZINC000441887161   -0.0700
     27 C27        -5.9193    5.2017   52.9512 C.3     1  ZINC000441887161   -0.1300
     28 C28        -3.7732    5.1631   54.2382 C.ar    1  ZINC000441887161   -0.1200
     29 H29        -1.8627    4.6703   56.5096 H       1  ZINC000441887161    0.0700
     30 H30        -0.6127    5.1351   55.3307 H       1  ZINC000441887161    0.0700
     31 H31        -1.9190    6.2734   55.7381 H       1  ZINC000441887161    0.0700
     32 H32        -1.0319    3.2300   53.8820 H       1  ZINC000441887161    0.1200
     33 H33        -2.4062    2.3052   52.0598 H       1  ZINC000441887161    0.1200
     34 H34        -5.3830    3.6039   49.2912 H       1  ZINC000441887161    0.1100
     35 H35        -4.5684    4.8818   50.2247 H       1  ZINC000441887161    0.1000
     36 H36        -3.8613    1.8172   48.0498 H       1  ZINC000441887161    0.1700
     37 H37        -1.2706    1.6683   47.6529 H       1  ZINC000441887161    0.1600
     38 H38        -1.9103    4.6493   50.5453 H       1  ZINC000441887161    0.2000
     39 H39        -3.7131    1.2904   51.4223 H       1  ZINC000441887161    0.4200
     40 H40        -6.7207   -1.2528   52.3365 H       1  ZINC000441887161    0.1300
     41 H41        -8.7395   -1.2136   53.7460 H       1  ZINC000441887161    0.1300
     42 H42       -10.3916    1.1848   54.8448 H       1  ZINC000441887161    0.0800
     43 H43       -11.4075    1.2838   53.3866 H       1  ZINC000441887161    0.0800
     44 H44       -10.9686   -0.3047   54.0593 H       1  ZINC000441887161    0.0700
     45 H45        -9.7520    3.6731   52.8502 H       1  ZINC000441887161    0.0800
     46 H46       -10.0263    3.3633   51.1190 H       1  ZINC000441887161    0.0700
     47 H47       -11.0709    2.5934   52.3373 H       1  ZINC000441887161    0.0700
     48 H48        -7.7700    2.5553   50.7280 H       1  ZINC000441887161    0.1400
     49 H49        -6.6521    4.6486   53.5388 H       1  ZINC000441887161    0.0800
     50 H50        -5.9466    6.2540   53.2338 H       1  ZINC000441887161    0.0700
     51 H51        -6.1549    5.1038   51.8914 H       1  ZINC000441887161    0.0600
     52 H52        -4.1569    5.9664   54.8498 H       1  ZINC000441887161    0.1300
@<TRIPOS>BOND
     1     1     2    1
     2     1    29    1
     3     1    30    1
     4     1    31    1
     5     2    28   ar
     6     2     3   ar
     7     3     4   ar
     8     3    32    1
     9     4     5   ar
    10     4    33    1
    11     5     6    1
    12     5    26   ar
    13     6     7    1
    14     6     8    1
    15     6    14    1
    16     8     9    1
    17     8    34    1
    18     8    35    1
    19     9    13    1
    20     9    10    1
    21    10    11    2
    22    10    36    1
    23    11    12    1
    24    11    37    1
    25    12    13    2
    26    13    38    1
    27    14    15   am
    28    14    39    1
    29    15    16    2
    30    15    17    2
    31    15    18    1
    32    18    25   ar
    33    18    19   ar
    34    19    20   ar
    35    19    40    1
    36    20    21   ar
    37    20    41    1
    38    21    22    1
    39    21    23   ar
    40    22    42    1
    41    22    43    1
    42    22    44    1
    43    23    24    1
    44    23    25   ar
    45    24    45    1
    46    24    46    1
    47    24    47    1
    48    25    48    1
    49    26    27    1
    50    26    28   ar
    51    27    49    1
    52    27    50    1
    53    27    51    1
    54    28    52    1
@<TRIPOS>SUBSTRUCTURE
     1 ZINC000441887161        1 TEMP              0 ****  ****    0 ROOT


##########                                Name:    ZINC000562561773
##########                DOCK_Rotatable_Bonds:                   6
##########                         Heavy_Atoms:                  26
##########                    Molecular_Weight:             371.466
##########                DOCK_Rotatable_Bonds:                   6
##########                       Formal_Charge:           0.0199999
##########                     HBond_Acceptors:                   9
##########                        HBond_Donors:                   0
##########                         Heavy_Atoms:                  26
##########                          Grid_Score:          -31.150352
##########                     Grid_vdw_energy:          -30.221987
##########                      Grid_es_energy:           -0.928366
##########           Internal_energy_repulsive:           11.563929

@<TRIPOS>MOLECULE
ZINC000562561773
 47 50 1 0 0
SMALL
USER_CHARGES


@<TRIPOS>ATOM
      1 C1        -10.3088    0.3078   56.1962 C.3     1  ZINC000562561773   -0.1100
      2 C2         -9.3944    0.3430   54.9988 C.ar    1  ZINC000562561773   -0.0400
      3 C3         -9.5497   -0.5835   53.9856 C.ar    1  ZINC000562561773   -0.1200
      4 C4         -8.7150   -0.5566   52.8858 C.ar    1  ZINC000562561773   -0.0700
      5 C5         -7.7123    0.4066   52.7949 C.ar    1  ZINC000562561773   -0.0300
      6 C6         -6.8147    0.4368   51.6131 C.2     1  ZINC000562561773    0.2200
      7 N7         -6.7878   -0.4321   50.6364 N.2     1  ZINC000562561773   -0.3700
      8 O8         -5.9407   -0.1220   49.8257 O.3     1  ZINC000562561773    0.0900
      9 C9         -5.3275    1.0015   50.2114 C.2     1  ZINC000562561773    0.1900
     10 C10        -4.2190    1.7128   49.4793 C.3     1  ZINC000562561773   -0.0100
     11 C11        -4.3134    3.2161   49.7472 C.3     1  ZINC000562561773   -0.1200
     12 S12        -3.3163    3.6341   51.1988 S.3     1  ZINC000562561773    0.0600
     13 C13        -1.7006    3.5043   50.5080 C.2     1  ZINC000562561773    0.2100
     14 N14        -1.4038    3.3756   49.2329 N.2     1  ZINC000562561773   -0.3300
     15 N15        -0.1315    3.3083   49.0718 N.2     1  ZINC000562561773   -0.0300
     16 N16         0.4690    3.3873   50.2098 N.2     1  ZINC000562561773   -0.0700
     17 N17        -0.5304    3.5240   51.1890 N.pl3   1  ZINC000562561773   -0.3600
     18 C18        -0.3459    3.6511   52.6367 C.3     1  ZINC000562561773    0.0800
     19 N19        -5.8759    1.3715   51.3418 N.2     1  ZINC000562561773   -0.4600
     20 C20        -7.5545    1.3408   53.8151 C.ar    1  ZINC000562561773   -0.1100
     21 C21        -8.4004    1.3109   54.9138 C.ar    1  ZINC000562561773    0.0800
     22 N22        -8.2465    2.2464   55.9398 N.3     1  ZINC000562561773   -0.4800
     23 C23        -6.8953    2.1506   56.5492 C.3     1  ZINC000562561773    0.0400
     24 C24        -6.7194    3.5264   57.2397 C.3     1  ZINC000562561773   -0.1200
     25 C25        -7.3970    4.5000   56.2483 C.3     1  ZINC000562561773   -0.1300
     26 C26        -8.3573    3.6266   55.4198 C.3     1  ZINC000562561773    0.0400
     27 H27       -11.1835    0.9290   56.0037 H       1  ZINC000562561773    0.0700
     28 H28       -10.6257   -0.7185   56.3813 H       1  ZINC000562561773    0.0600
     29 H29        -9.7786    0.6876   57.0695 H       1  ZINC000562561773    0.0800
     30 H30       -10.3261   -1.3311   54.0542 H       1  ZINC000562561773    0.1400
     31 H31        -8.8394   -1.2827   52.0961 H       1  ZINC000562561773    0.1400
     32 H32        -3.2557    1.3412   49.8288 H       1  ZINC000562561773    0.1200
     33 H33        -4.3131    1.5278   48.4092 H       1  ZINC000562561773    0.1300
     34 H34        -3.9415    3.7637   48.8812 H       1  ZINC000562561773    0.1100
     35 H35        -5.3530    3.4881   49.9300 H       1  ZINC000562561773    0.1100
     36 H36        -0.2537    4.7048   52.9000 H       1  ZINC000562561773    0.1000
     37 H37        -1.2054    3.2218   53.1516 H       1  ZINC000562561773    0.1000
     38 H38         0.5586    3.1214   52.9356 H       1  ZINC000562561773    0.1100
     39 H39        -6.7785    2.0889   53.7491 H       1  ZINC000562561773    0.1300
     40 H40        -6.8602    1.3448   57.2824 H       1  ZINC000562561773    0.0900
     41 H41        -6.1360    2.0061   55.7806 H       1  ZINC000562561773    0.0500
     42 H42        -7.2278    3.5418   58.2038 H       1  ZINC000562561773    0.0800
     43 H43        -5.6628    3.7675   57.3559 H       1  ZINC000562561773    0.0700
     44 H44        -7.9534    5.2650   56.7899 H       1  ZINC000562561773    0.0800
     45 H45        -6.6508    4.9607   55.6009 H       1  ZINC000562561773    0.0700
     46 H46        -8.0688    3.6516   54.3689 H       1  ZINC000562561773    0.0500
     47 H47        -9.3797    3.9860   55.5356 H       1  ZINC000562561773    0.0800
@<TRIPOS>BOND
     1     1     2    1
     2     1    27    1
     3     1    28    1
     4     1    29    1
     5     2    21   ar
     6     2     3   ar
     7     3     4   ar
     8     3    30    1
     9     4     5   ar
    10     4    31    1
    11     5     6    1
    12     5    20   ar
    13     6    19    1
    14     6     7    2
    15     7     8    1
    16     8     9    1
    17     9    10    1
    18     9    19    2
    19    10    11    1
    20    10    32    1
    21    10    33    1
    22    11    12    1
    23    11    34    1
    24    11    35    1
    25    12    13    1
    26    13    17    1
    27    13    14    2
    28    14    15    1
    29    15    16    2
    30    16    17    1
    31    17    18    1
    32    18    36    1
    33    18    37    1
    34    18    38    1
    35    20    21   ar
    36    20    39    1
    37    21    22    1
    38    22    26    1
    39    22    23    1
    40    23    24    1
    41    23    40    1
    42    23    41    1
    43    24    25    1
    44    24    42    1
    45    24    43    1
    46    25    26    1
    47    25    44    1
    48    25    45    1
    49    26    46    1
    50    26    47    1
@<TRIPOS>SUBSTRUCTURE
     1 ZINC000562561773        1 TEMP              0 ****  ****    0 ROOT


##########                                Name:    ZINC000573650873
##########                DOCK_Rotatable_Bonds:                  10
##########                         Heavy_Atoms:                  28
##########                    Molecular_Weight:             418.843
##########                DOCK_Rotatable_Bonds:                  10
##########                       Formal_Charge:          -0.0500001
##########                     HBond_Acceptors:                   9
##########                        HBond_Donors:                   1
##########                         Heavy_Atoms:                  28
##########                          Grid_Score:          -31.145205
##########                     Grid_vdw_energy:          -31.396608
##########                      Grid_es_energy:            0.251403
##########           Internal_energy_repulsive:           12.794418

@<TRIPOS>MOLECULE
ZINC000573650873
 50 51 1 0 0
SMALL
USER_CHARGES


@<TRIPOS>ATOM
      1 C1        -13.3599   -3.0215   57.0335 C.3     1  ZINC000573650873   -0.1400
      2 C2        -12.4436   -1.8972   57.5205 C.3     1  ZINC000573650873    0.0100
      3 C3        -13.2690   -0.8635   58.2893 C.3     1  ZINC000573650873   -0.1400
      4 C4        -11.3685   -2.4783   58.4413 C.3     1  ZINC000573650873   -0.1500
      5 C5        -11.7869   -1.2358   56.3364 C.2     1  ZINC000573650873   -0.0100
      6 C6        -10.5269   -1.4457   55.8896 C.2     1  ZINC000573650873   -0.1800
      7 C7        -10.4151   -0.5837   54.7633 C.2     1  ZINC000573650873   -0.0300
      8 C8         -9.2311   -0.4118   53.8866 C.2     1  ZINC000573650873    0.6000
      9 O9         -8.9561   -1.2621   53.0635 O.2     1  ZINC000573650873   -0.5100
     10 N10        -8.4604    0.6878   54.0029 N.am    1  ZINC000573650873   -0.5900
     11 C11        -7.2909    0.8576   53.1369 C.3     1  ZINC000573650873    0.1200
     12 C12        -7.7329    1.4349   51.7907 C.3     1  ZINC000573650873   -0.1000
     13 C13        -6.5344    1.5807   50.8889 C.ar    1  ZINC000573650873   -0.0800
     14 C14        -5.8461    0.4582   50.4678 C.ar    1  ZINC000573650873   -0.1000
     15 C15        -4.7467    0.5911   49.6406 C.ar    1  ZINC000573650873   -0.1100
     16 C16        -4.3353    1.8479   49.2341 C.ar    1  ZINC000573650873   -0.0400
     17 Cl17       -2.9550    2.0157   48.1946 Cl      1  ZINC000573650873   -0.0700
     18 C18        -5.0246    2.9709   49.6558 C.ar    1  ZINC000573650873   -0.1100
     19 C19        -6.1272    2.8362   50.4784 C.ar    1  ZINC000573650873   -0.1000
     20 C20        -8.7919    1.7130   54.9955 C.3     1  ZINC000573650873    0.0700
     21 C21        -8.1920    1.3257   56.3487 C.3     1  ZINC000573650873    0.0600
     22 H22        -8.4604    0.2958   56.5837 H       1  ZINC000573650873    0.1400
     23 O23        -6.7692    1.4459   56.2909 O.3     1  ZINC000573650873   -0.5200
     24 C24        -8.7388    2.2555   57.4338 C.3     1  ZINC000573650873    0.4300
     25 F25       -10.1296    2.1228   57.5043 F       1  ZINC000573650873   -0.1700
     26 F26        -8.1747    1.9144   58.6677 F       1  ZINC000573650873   -0.1700
     27 F27        -8.4118    3.5795   57.1216 F       1  ZINC000573650873   -0.1800
     28 N28       -11.5690    0.0269   54.6566 N.2     1  ZINC000573650873   -0.3400
     29 O29       -12.3390   -0.3296   55.5179 O.3     1  ZINC000573650873    0.1300
     30 H30       -14.1258   -2.6076   56.3775 H       1  ZINC000573650873    0.0600
     31 H31       -12.7718   -3.7580   56.4859 H       1  ZINC000573650873    0.0600
     32 H32       -13.8348   -3.5000   57.8900 H       1  ZINC000573650873    0.0700
     33 H33       -13.7440   -1.3420   59.1457 H       1  ZINC000573650873    0.0700
     34 H34       -12.6162   -0.0626   58.6363 H       1  ZINC000573650873    0.0600
     35 H35       -14.0349   -0.4495   57.6334 H       1  ZINC000573650873    0.0600
     36 H36       -10.7804   -3.2147   57.8937 H       1  ZINC000573650873    0.0600
     37 H37       -10.7158   -1.6774   58.7883 H       1  ZINC000573650873    0.0600
     38 H38       -11.8436   -2.9567   59.2977 H       1  ZINC000573650873    0.0700
     39 H39        -9.7799   -2.1125   56.2941 H       1  ZINC000573650873    0.1800
     40 H40        -6.5843    1.5393   53.6102 H       1  ZINC000573650873    0.0900
     41 H41        -6.8128   -0.1090   52.9784 H       1  ZINC000573650873    0.1000
     42 H42        -8.4566    0.7640   51.3277 H       1  ZINC000573650873    0.0800
     43 H43        -8.1910    2.4116   51.9470 H       1  ZINC000573650873    0.0800
     44 H44        -6.1671   -0.5229   50.7855 H       1  ZINC000573650873    0.1300
     45 H45        -4.2088   -0.2858   49.3120 H       1  ZINC000573650873    0.1300
     46 H46        -4.7037    3.9523   49.3390 H       1  ZINC000573650873    0.1300
     47 H47        -6.6655    3.7128   50.8075 H       1  ZINC000573650873    0.1300
     48 H48        -8.3829    2.6720   54.6778 H       1  ZINC000573650873    0.1000
     49 H49        -9.8751    1.7927   55.0877 H       1  ZINC000573650873    0.1200
     50 H50        -6.4581    2.3360   56.0759 H       1  ZINC000573650873    0.3900
@<TRIPOS>BOND
     1     1     2    1
     2     1    30    1
     3     1    31    1
     4     1    32    1
     5     2     3    1
     6     2     4    1
     7     2     5    1
     8     3    33    1
     9     3    34    1
    10     3    35    1
    11     4    36    1
    12     4    37    1
    13     4    38    1
    14     5    29    1
    15     5     6    2
    16     6     7    1
    17     6    39    1
    18     7     8    1
    19     7    28    2
    20     8     9    2
    21     8    10   am
    22    10    11    1
    23    10    20    1
    24    11    12    1
    25    11    40    1
    26    11    41    1
    27    12    13    1
    28    12    42    1
    29    12    43    1
    30    13    19   ar
    31    13    14   ar
    32    14    15   ar
    33    14    44    1
    34    15    16   ar
    35    15    45    1
    36    16    17    1
    37    16    18   ar
    38    18    19   ar
    39    18    46    1
    40    19    47    1
    41    20    21    1
    42    20    48    1
    43    20    49    1
    44    21    22    1
    45    21    23    1
    46    21    24    1
    47    23    50    1
    48    24    25    1
    49    24    26    1
    50    24    27    1
    51    28    29    1
@<TRIPOS>SUBSTRUCTURE
     1 ZINC000573650873        1 TEMP              0 ****  ****    0 ROOT


##########                                Name:    ZINC000492313853
##########                DOCK_Rotatable_Bonds:                   8
##########                         Heavy_Atoms:                  30
##########                    Molecular_Weight:             418.422
##########                DOCK_Rotatable_Bonds:                   8
##########                       Formal_Charge:          -0.0100008
##########                     HBond_Acceptors:                  10
##########                        HBond_Donors:                   2
##########                         Heavy_Atoms:                  30
##########                          Grid_Score:          -31.140144
##########                     Grid_vdw_energy:          -30.264551
##########                      Grid_es_energy:           -0.875593
##########           Internal_energy_repulsive:           10.918172

@<TRIPOS>MOLECULE
ZINC000492313853
 51 53 1 0 0
SMALL
USER_CHARGES


@<TRIPOS>ATOM
      1 C1        -10.6546    2.4654   65.8365 C.3     1  ZINC000492313853    0.0900
      2 N2         -9.4637    1.6428   65.6092 N.pl3   1  ZINC000492313853   -0.6200
      3 C3         -8.6064    1.2681   66.7364 C.3     1  ZINC000492313853    0.1000
      4 C4         -9.1474    1.2178   64.3240 C.ar    1  ZINC000492313853    0.4100
      5 C5         -9.7604    1.8181   63.2292 C.ar    1  ZINC000492313853   -0.2400
      6 C6         -9.4359    1.3857   61.9558 C.ar    1  ZINC000492313853   -0.0100
      7 C7         -8.5059    0.3638   61.8199 C.ar    1  ZINC000492313853   -0.2300
      8 C8         -8.1216   -0.1387   60.4521 C.3     1  ZINC000492313853    0.2000
      9 N9         -7.8537    1.0004   59.5707 N.am    1  ZINC000492313853   -0.7300
     10 C10        -8.0086    0.8724   58.2380 C.2     1  ZINC000492313853    0.7100
     11 O11        -8.3721   -0.1881   57.7673 O.2     1  ZINC000492313853   -0.5600
     12 N12        -7.7605    1.9199   57.4271 N.am    1  ZINC000492313853   -0.6600
     13 C13        -7.9192    1.7870   56.0474 C.2     1  ZINC000492313853    0.3300
     14 C14        -6.9219    1.7597   55.1249 C.2     1  ZINC000492313853   -0.2600
     15 C15        -7.5134    1.6126   53.8563 C.2     1  ZINC000492313853    0.1200
     16 C16        -6.7909    1.5366   52.5621 C.ar    1  ZINC000492313853   -0.0100
     17 C17        -7.1351    0.5646   51.6254 C.ar    1  ZINC000492313853   -0.0600
     18 C18        -6.4601    0.4986   50.4231 C.ar    1  ZINC000492313853   -0.1200
     19 C19        -5.4440    1.3954   50.1476 C.ar    1  ZINC000492313853   -0.0700
     20 C20        -5.0981    2.3628   51.0741 C.ar    1  ZINC000492313853   -0.1900
     21 C21        -3.9901    3.3368   50.7668 C.3     1  ZINC000492313853    0.5100
     22 F22        -4.2752    4.5705   51.3620 F       1  ZINC000492313853   -0.1800
     23 F23        -2.7822    2.8436   51.2715 F       1  ZINC000492313853   -0.1800
     24 F24        -3.8844    3.5010   49.3814 F       1  ZINC000492313853   -0.1800
     25 C25        -5.7698    2.4410   52.2772 C.ar    1  ZINC000492313853   -0.0400
     26 N26        -8.8184    1.5541   54.0168 N.2     1  ZINC000492313853   -0.2700
     27 N27        -9.0984    1.6556   55.3853 N.pl3   1  ZINC000492313853   -0.3900
     28 C28       -10.4302    1.6335   55.9954 C.3     1  ZINC000492313853    0.1000
     29 C29        -7.9362   -0.1869   62.9505 C.ar    1  ZINC000492313853    0.1700
     30 N30        -8.2610    0.2490   64.1528 N.ar    1  ZINC000492313853   -0.5400
     31 H31       -10.3902    3.5192   65.7495 H       1  ZINC000492313853    0.0600
     32 H32       -11.4136    2.2187   65.0940 H       1  ZINC000492313853    0.0700
     33 H33       -11.0460    2.2700   66.8348 H       1  ZINC000492313853    0.0700
     34 H34        -9.0110    1.6897   67.6566 H       1  ZINC000492313853    0.0700
     35 H35        -8.5698    0.1819   66.8198 H       1  ZINC000492313853    0.0600
     36 H36        -7.6003    1.6539   66.5717 H       1  ZINC000492313853    0.0600
     37 H37       -10.4801    2.6106   63.3713 H       1  ZINC000492313853    0.1300
     38 H38        -9.8960    1.8327   61.0869 H       1  ZINC000492313853    0.1400
     39 H39        -7.2267   -0.7561   60.5301 H       1  ZINC000492313853    0.0800
     40 H40        -8.9378   -0.7324   60.0406 H       1  ZINC000492313853    0.0800
     41 H41        -7.5648    1.8468   59.9463 H       1  ZINC000492313853    0.4000
     42 H42        -7.4717    2.7664   57.8027 H       1  ZINC000492313853    0.4100
     43 H43        -5.8642    1.8377   55.3287 H       1  ZINC000492313853    0.1800
     44 H44        -7.9281   -0.1365   51.8397 H       1  ZINC000492313853    0.1400
     45 H45        -6.7258   -0.2547   49.6963 H       1  ZINC000492313853    0.1400
     46 H46        -4.9182    1.3403   49.2058 H       1  ZINC000492313853    0.1400
     47 H47        -5.4991    3.1965   52.9998 H       1  ZINC000492313853    0.1400
     48 H48       -10.7037    0.6058   56.2336 H       1  ZINC000492313853    0.0800
     49 H49       -10.4213    2.2283   56.9088 H       1  ZINC000492313853    0.0800
     50 H50       -11.1564    2.0503   55.2974 H       1  ZINC000492313853    0.1000
     51 H51        -7.2123   -0.9820   62.8494 H       1  ZINC000492313853    0.1600
@<TRIPOS>BOND
     1     1     2    1
     2     1    31    1
     3     1    32    1
     4     1    33    1
     5     2     3    1
     6     2     4    1
     7     3    34    1
     8     3    35    1
     9     3    36    1
    10     4    30   ar
    11     4     5   ar
    12     5     6   ar
    13     5    37    1
    14     6     7   ar
    15     6    38    1
    16     7     8    1
    17     7    29   ar
    18     8     9    1
    19     8    39    1
    20     8    40    1
    21     9    10   am
    22     9    41    1
    23    10    11    2
    24    10    12   am
    25    12    13    1
    26    12    42    1
    27    13    27    1
    28    13    14    2
    29    14    15    1
    30    14    43    1
    31    15    16    1
    32    15    26    2
    33    16    25   ar
    34    16    17   ar
    35    17    18   ar
    36    17    44    1
    37    18    19   ar
    38    18    45    1
    39    19    20   ar
    40    19    46    1
    41    20    21    1
    42    20    25   ar
    43    21    22    1
    44    21    23    1
    45    21    24    1
    46    25    47    1
    47    26    27    1
    48    27    28    1
    49    28    48    1
    50    28    49    1
    51    28    50    1
    52    29    30   ar
    53    29    51    1
@<TRIPOS>SUBSTRUCTURE
     1 ZINC000492313853        1 TEMP              0 ****  ****    0 ROOT


##########                                Name:    ZINC000074782190
##########                DOCK_Rotatable_Bonds:                   9
##########                         Heavy_Atoms:                  25
##########                    Molecular_Weight:             341.453
##########                DOCK_Rotatable_Bonds:                   9
##########                       Formal_Charge:          -0.0200006
##########                     HBond_Acceptors:                   5
##########                        HBond_Donors:                   1
##########                         Heavy_Atoms:                  25
##########                          Grid_Score:          -31.135738
##########                     Grid_vdw_energy:          -30.328905
##########                      Grid_es_energy:           -0.806833
##########           Internal_energy_repulsive:           22.212206

@<TRIPOS>MOLECULE
ZINC000074782190
 52 53 1 0 0
SMALL
USER_CHARGES


@<TRIPOS>ATOM
      1 C1         -6.4545    3.8553   50.5688 C.3     1  ZINC000074782190   -0.1100
      2 C2         -6.0537    2.4356   50.2603 C.ar    1  ZINC000074782190   -0.1200
      3 C3         -6.9283    1.3986   50.5202 C.ar    1  ZINC000074782190   -0.0800
      4 C4         -6.5610    0.0956   50.2379 C.ar    1  ZINC000074782190   -0.1500
      5 C5         -5.3183   -0.1723   49.6946 C.ar    1  ZINC000074782190   -0.0900
      6 C6         -4.4401    0.8615   49.4323 C.ar    1  ZINC000074782190   -0.2100
      7 C7         -4.8082    2.1698   49.7097 C.ar    1  ZINC000074782190    0.1300
      8 O8         -3.9461    3.1886   49.4528 O.3     1  ZINC000074782190   -0.3000
      9 C9         -2.7282    3.2117   50.1998 C.3     1  ZINC000074782190    0.0700
     10 H10        -2.7470    2.4213   50.9500 H       1  ZINC000074782190    0.0800
     11 C11        -2.5800    4.5682   50.8918 C.3     1  ZINC000074782190   -0.1800
     12 C12        -1.5459    2.9896   49.2545 C.3     1  ZINC000074782190    0.1400
     13 N13        -0.2928    3.0998   50.0054 N.am    1  ZINC000074782190   -0.7500
     14 C14         0.8551    2.6362   49.4727 C.2     1  ZINC000074782190    0.7100
     15 O15         0.8507    2.1264   48.3689 O.2     1  ZINC000074782190   -0.5900
     16 N16         2.0079    2.7376   50.1635 N.am    1  ZINC000074782190   -0.6200
     17 C17         3.2557    2.2337   49.5844 C.3     1  ZINC000074782190    0.1800
     18 C18         3.4735    0.8085   50.0231 C.ar    1  ZINC000074782190   -0.1600
     19 C19         2.4714   -0.1359   49.8640 C.ar    1  ZINC000074782190   -0.0500
     20 C20         2.7166   -1.4353   50.2817 C.ar    1  ZINC000074782190   -0.1800
     21 C21         3.9432   -1.7434   50.8385 C.ar    1  ZINC000074782190    0.1000
     22 N22         4.8737   -0.8188   50.9744 N.ar    1  ZINC000074782190   -0.4900
     23 C23         4.6775    0.4251   50.5838 C.ar    1  ZINC000074782190    0.1100
     24 C24         2.0132    3.3519   51.4935 C.3     1  ZINC000074782190    0.1300
     25 C25         2.7888    2.4592   52.4644 C.3     1  ZINC000074782190   -0.1800
     26 C26         2.6825    4.7256   51.4183 C.3     1  ZINC000074782190   -0.1800
     27 H27        -6.9482    4.2904   49.6999 H       1  ZINC000074782190    0.0700
     28 H28        -7.1386    3.8635   51.4175 H       1  ZINC000074782190    0.0600
     29 H29        -5.5666    4.4388   50.8122 H       1  ZINC000074782190    0.0700
     30 H30        -7.8996    1.6055   50.9446 H       1  ZINC000074782190    0.1300
     31 H31        -7.2459   -0.7139   50.4425 H       1  ZINC000074782190    0.1200
     32 H32        -5.0336   -1.1909   49.4753 H       1  ZINC000074782190    0.1200
     33 H33        -3.4693    0.6516   49.0083 H       1  ZINC000074782190    0.1300
     34 H34        -2.5612    5.3587   50.1416 H       1  ZINC000074782190    0.0700
     35 H35        -3.4224    4.7264   51.5653 H       1  ZINC000074782190    0.0700
     36 H36        -1.6510    4.5859   51.4616 H       1  ZINC000074782190    0.0800
     37 H37        -1.6172    1.9966   48.8106 H       1  ZINC000074782190    0.0800
     38 H38        -1.5645    3.7422   48.4662 H       1  ZINC000074782190    0.0900
     39 H39        -0.2893    3.5066   50.8860 H       1  ZINC000074782190    0.4100
     40 H40         3.1937    2.2737   48.4970 H       1  ZINC000074782190    0.0900
     41 H41         4.0885    2.8496   49.9238 H       1  ZINC000074782190    0.1000
     42 H42         1.5219    0.1340   49.4256 H       1  ZINC000074782190    0.1400
     43 H43         1.9584   -2.1967   50.1735 H       1  ZINC000074782190    0.1300
     44 H44         4.1419   -2.7530   51.1667 H       1  ZINC000074782190    0.1600
     45 H45         5.4633    1.1549   50.7113 H       1  ZINC000074782190    0.1500
     46 H46         0.9878    3.4660   51.8450 H       1  ZINC000074782190    0.1000
     47 H47         3.8355    2.4182   52.1631 H       1  ZINC000074782190    0.0600
     48 H48         2.7165    2.8692   53.4718 H       1  ZINC000074782190    0.0700
     49 H49         2.3668    1.4543   52.4500 H       1  ZINC000074782190    0.0600
     50 H50         2.0678    5.3969   50.8184 H       1  ZINC000074782190    0.0700
     51 H51         2.7905    5.1328   52.4235 H       1  ZINC000074782190    0.0700
     52 H52         3.6661    4.6259   50.9590 H       1  ZINC000074782190    0.0700
@<TRIPOS>BOND
     1     1     2    1
     2     1    27    1
     3     1    28    1
     4     1    29    1
     5     2     7   ar
     6     2     3   ar
     7     3     4   ar
     8     3    30    1
     9     4     5   ar
    10     4    31    1
    11     5     6   ar
    12     5    32    1
    13     6     7   ar
    14     6    33    1
    15     7     8    1
    16     8     9    1
    17     9    10    1
    18     9    11    1
    19     9    12    1
    20    11    34    1
    21    11    35    1
    22    11    36    1
    23    12    13    1
    24    12    37    1
    25    12    38    1
    26    13    14   am
    27    13    39    1
    28    14    15    2
    29    14    16   am
    30    16    17    1
    31    16    24    1
    32    17    18    1
    33    17    40    1
    34    17    41    1
    35    18    23   ar
    36    18    19   ar
    37    19    20   ar
    38    19    42    1
    39    20    21   ar
    40    20    43    1
    41    21    22   ar
    42    21    44    1
    43    22    23   ar
    44    23    45    1
    45    24    25    1
    46    24    26    1
    47    24    46    1
    48    25    47    1
    49    25    48    1
    50    25    49    1
    51    26    50    1
    52    26    51    1
    53    26    52    1
@<TRIPOS>SUBSTRUCTURE
     1 ZINC000074782190        1 TEMP              0 ****  ****    0 ROOT


##########                                Name:    ZINC000512239524
##########                DOCK_Rotatable_Bonds:                   9
##########                         Heavy_Atoms:                  31
##########                    Molecular_Weight:             424.518
##########                DOCK_Rotatable_Bonds:                   9
##########                       Formal_Charge:          0.00999919
##########                     HBond_Acceptors:                   7
##########                        HBond_Donors:                   1
##########                         Heavy_Atoms:                  31
##########                          Grid_Score:          -31.134150
##########                     Grid_vdw_energy:          -30.627008
##########                      Grid_es_energy:           -0.507140
##########           Internal_energy_repulsive:           24.786974

@<TRIPOS>MOLECULE
ZINC000512239524
 60 63 1 0 0
SMALL
USER_CHARGES


@<TRIPOS>ATOM
      1 C1         -7.7653    4.3263   49.9435 C.3     1  ZINC000512239524   -0.1600
      2 C2         -6.6322    3.8642   50.8620 C.3     1  ZINC000512239524    0.2000
      3 H3         -5.7835    4.5404   50.7603 H       1  ZINC000512239524    0.1100
      4 N4         -7.0970    3.8692   52.2513 N.am    1  ZINC000512239524   -0.7400
      5 C5         -6.2180    4.0580   53.2553 C.2     1  ZINC000512239524    0.7100
      6 O6         -5.0391    4.2242   53.0080 O.2     1  ZINC000512239524   -0.5800
      7 N7         -6.6455    4.0627   54.5334 N.am    1  ZINC000512239524   -0.6300
      8 C8         -8.0658    3.8573   54.8484 C.3     1  ZINC000512239524    0.1300
      9 C9         -8.1863    2.7114   55.8580 C.3     1  ZINC000512239524   -0.1100
     10 C10        -7.3101    3.0154   57.0754 C.3     1  ZINC000512239524   -0.1000
     11 C11        -7.4524    1.9064   58.0858 C.2     1  ZINC000512239524    0.5300
     12 O12        -6.7960    0.8931   57.9706 O.2     1  ZINC000512239524   -0.5300
     13 N13        -8.3092    2.0406   59.1176 N.am    1  ZINC000512239524   -0.5800
     14 C14        -8.4463    0.9632   60.1007 C.3     1  ZINC000512239524    0.1500
     15 C15        -9.4651   -0.0348   59.6136 C.ar    1  ZINC000512239524   -0.1100
     16 C16       -10.7984    0.1219   59.9431 C.ar    1  ZINC000512239524   -0.0900
     17 C17       -11.7329   -0.7935   59.4962 C.ar    1  ZINC000512239524   -0.1200
     18 C18       -11.3341   -1.8652   58.7195 C.ar    1  ZINC000512239524   -0.1100
     19 C19       -10.0009   -2.0214   58.3893 C.ar    1  ZINC000512239524   -0.1200
     20 C20        -9.0670   -1.1036   58.8325 C.ar    1  ZINC000512239524   -0.1100
     21 C21        -9.1034    3.2639   59.2558 C.3     1  ZINC000512239524    0.0700
     22 C22        -9.3543    3.7870   60.6715 C.3     1  ZINC000512239524   -0.1900
     23 C23        -8.3834    4.5220   59.7452 C.3     1  ZINC000512239524   -0.2000
     24 C24        -5.8472    3.1229   56.6390 C.3     1  ZINC000512239524   -0.1400
     25 C25        -5.6992    4.2673   55.6386 C.3     1  ZINC000512239524    0.1100
     26 C26        -6.2118    2.4690   50.4779 C.ar    1  ZINC000512239524   -0.0800
     27 C27        -6.9932    1.3747   50.8137 C.ar    1  ZINC000512239524   -0.1400
     28 C28        -6.5759    0.1096   50.4443 C.ar    1  ZINC000512239524    0.1000
     29 N29        -5.4496   -0.0634   49.7809 N.ar    1  ZINC000512239524   -0.4600
     30 C30        -4.6798    0.9528   49.4438 C.ar    1  ZINC000512239524    0.0800
     31 C31        -5.0349    2.2492   49.7740 C.ar    1  ZINC000512239524    0.0600
     32 F32        -4.2418    3.2860   49.4257 F       1  ZINC000512239524   -0.1200
     33 H33        -8.0695    5.3355   50.2213 H       1  ZINC000512239524    0.0700
     34 H34        -7.4195    4.3227   48.9098 H       1  ZINC000512239524    0.0700
     35 H35        -8.6141    3.6501   50.0452 H       1  ZINC000512239524    0.0600
     36 H36        -8.0375    3.7366   52.4486 H       1  ZINC000512239524    0.3900
     37 H37        -8.4802    4.7689   55.2790 H       1  ZINC000512239524    0.0700
     38 H38        -8.6086    3.6012   53.9384 H       1  ZINC000512239524    0.1000
     39 H39        -9.2250    2.6119   56.1731 H       1  ZINC000512239524    0.0900
     40 H40        -7.8556    1.7820   55.3946 H       1  ZINC000512239524    0.0800
     41 H41        -7.6253    3.9577   57.5236 H       1  ZINC000512239524    0.1000
     42 H42        -7.4850    0.4664   60.2317 H       1  ZINC000512239524    0.0900
     43 H43        -8.7727    1.3801   61.0534 H       1  ZINC000512239524    0.1000
     44 H44       -11.1100    0.9592   60.5498 H       1  ZINC000512239524    0.1300
     45 H45       -12.7745   -0.6715   59.7542 H       1  ZINC000512239524    0.1200
     46 H46       -12.0642   -2.5808   58.3710 H       1  ZINC000512239524    0.1200
     47 H47        -9.6893   -2.8588   57.7828 H       1  ZINC000512239524    0.1200
     48 H48        -8.0254   -1.2256   58.5746 H       1  ZINC000512239524    0.1200
     49 H49        -9.8997    3.3928   58.5227 H       1  ZINC000512239524    0.1300
     50 H50       -10.3160    4.2601   60.8701 H       1  ZINC000512239524    0.1100
     51 H51        -8.9286    3.2211   61.5000 H       1  ZINC000512239524    0.1000
     52 H52        -7.3189    4.4396   59.9644 H       1  ZINC000512239524    0.1100
     53 H53        -8.7063    5.4786   59.3345 H       1  ZINC000512239524    0.1000
     54 H54        -5.2209    3.3161   57.5100 H       1  ZINC000512239524    0.0900
     55 H55        -5.5384    2.1895   56.1683 H       1  ZINC000512239524    0.0700
     56 H56        -4.6807    4.2843   55.2508 H       1  ZINC000512239524    0.0800
     57 H57        -5.9209    5.2141   56.1311 H       1  ZINC000512239524    0.0800
     58 H58        -7.9166    1.5086   51.3575 H       1  ZINC000512239524    0.1400
     59 H59        -7.1797   -0.7478   50.7025 H       1  ZINC000512239524    0.1700
     60 H60        -3.7640    0.7718   48.9007 H       1  ZINC000512239524    0.1700
@<TRIPOS>BOND
     1     1     2    1
     2     1    33    1
     3     1    34    1
     4     1    35    1
     5     2     3    1
     6     2     4    1
     7     2    26    1
     8     4     5   am
     9     4    36    1
    10     5     6    2
    11     5     7   am
    12     7    25    1
    13     7     8    1
    14     8     9    1
    15     8    37    1
    16     8    38    1
    17     9    10    1
    18     9    39    1
    19     9    40    1
    20    10    11    1
    21    10    24    1
    22    10    41    1
    23    11    12    2
    24    11    13   am
    25    13    14    1
    26    13    21    1
    27    14    15    1
    28    14    42    1
    29    14    43    1
    30    15    20   ar
    31    15    16   ar
    32    16    17   ar
    33    16    44    1
    34    17    18   ar
    35    17    45    1
    36    18    19   ar
    37    18    46    1
    38    19    20   ar
    39    19    47    1
    40    20    48    1
    41    21    23    1
    42    21    22    1
    43    21    49    1
    44    22    23    1
    45    22    50    1
    46    22    51    1
    47    23    52    1
    48    23    53    1
    49    24    25    1
    50    24    54    1
    51    24    55    1
    52    25    56    1
    53    25    57    1
    54    26    31   ar
    55    26    27   ar
    56    27    28   ar
    57    27    58    1
    58    28    29   ar
    59    28    59    1
    60    29    30   ar
    61    30    31   ar
    62    30    60    1
    63    31    32    1
@<TRIPOS>SUBSTRUCTURE
     1 ZINC000512239524        1 TEMP              0 ****  ****    0 ROOT


##########                                Name:    ZINC000269356812
##########                DOCK_Rotatable_Bonds:                  10
##########                         Heavy_Atoms:                  25
##########                    Molecular_Weight:             387.431
##########                DOCK_Rotatable_Bonds:                  10
##########                       Formal_Charge:          0.00999978
##########                     HBond_Acceptors:                  10
##########                        HBond_Donors:                   3
##########                         Heavy_Atoms:                  25
##########                          Grid_Score:          -31.127119
##########                     Grid_vdw_energy:          -30.410288
##########                      Grid_es_energy:           -0.716831
##########           Internal_energy_repulsive:            7.068896

@<TRIPOS>MOLECULE
ZINC000269356812
 40 41 1 0 0
SMALL
USER_CHARGES


@<TRIPOS>ATOM
      1 C1         -9.2597   -0.0236   52.9738 C.3     1  ZINC000269356812   -0.1400
      2 C2         -7.8415    0.5151   52.7750 C.3     1  ZINC000269356812    0.2000
      3 O3         -6.9149   -0.5728   52.7719 O.3     1  ZINC000269356812   -0.5400
      4 C4         -7.7605    1.2578   51.4398 C.3     1  ZINC000269356812    0.0900
      5 N5         -6.4261    1.0799   50.8622 N.am    1  ZINC000269356812   -0.6900
      6 C6         -5.8867    2.0517   50.0999 C.2     1  ZINC000269356812    0.5100
      7 O7         -6.5072    3.0735   49.8907 O.2     1  ZINC000269356812   -0.5100
      8 C8         -4.5257    1.8711   49.5126 C.2     1  ZINC000269356812    0.5100
      9 O9         -4.1153    0.7562   49.2633 O.2     1  ZINC000269356812   -0.4900
     10 N10        -3.7529    2.9459   49.2595 N.am    1  ZINC000269356812   -0.6400
     11 C11        -2.4777    2.7767   48.7092 C.ar    1  ZINC000269356812    0.0900
     12 C12        -1.3436    3.1605   49.4245 C.ar    1  ZINC000269356812   -0.0600
     13 C13        -0.1037    2.9745   48.8425 C.ar    1  ZINC000269356812   -0.1200
     14 C14        -0.0284    2.4145   47.5707 C.ar    1  ZINC000269356812    0.1000
     15 S15         1.5459    2.1715   46.8178 S.3     1  ZINC000269356812   -0.0600
     16 C16         1.6853    0.3647   46.7372 C.3     1  ZINC000269356812    0.2900
     17 F17         2.7158    0.0152   45.8579 F       1  ZINC000269356812   -0.1700
     18 F18         1.9688   -0.1385   48.0114 F       1  ZINC000269356812   -0.1700
     19 N19        -1.1269    2.0615   46.9202 N.ar    1  ZINC000269356812   -0.4600
     20 C20        -2.3255    2.2196   47.4475 C.ar    1  ZINC000269356812    0.1100
     21 C21        -7.5017    1.4612   53.8976 C.2     1  ZINC000269356812   -0.2300
     22 C22        -6.4244    2.2466   53.9418 C.2     1  ZINC000269356812   -0.1100
     23 C23        -6.3223    3.0335   55.0760 C.2     1  ZINC000269356812   -0.1400
     24 C24        -7.3168    2.8873   55.9529 C.2     1  ZINC000269356812   -0.2000
     25 S25        -8.4688    1.7045   55.3464 S.3     1  ZINC000269356812    0.1100
     26 H26        -9.3174   -0.5528   53.9250 H       1  ZINC000269356812    0.0800
     27 H27        -9.9665    0.8061   52.9762 H       1  ZINC000269356812    0.0800
     28 H28        -9.5056   -0.7080   52.1618 H       1  ZINC000269356812    0.0700
     29 H29        -6.9835   -1.1501   53.5446 H       1  ZINC000269356812    0.3800
     30 H30        -8.5089    0.8578   50.7556 H       1  ZINC000269356812    0.0900
     31 H31        -7.9475    2.3192   51.6026 H       1  ZINC000269356812    0.0900
     32 H32        -5.9306    0.2626   51.0284 H       1  ZINC000269356812    0.4200
     33 H33        -4.0809    3.8368   49.4588 H       1  ZINC000269356812    0.4300
     34 H34        -1.4321    3.5931   50.4101 H       1  ZINC000269356812    0.1600
     35 H35         0.7954    3.2607   49.3680 H       1  ZINC000269356812    0.1500
     36 H36         0.7452   -0.0567   46.3810 H       1  ZINC000269356812    0.1500
     37 H37        -3.1990    1.9202   46.8873 H       1  ZINC000269356812    0.1700
     38 H38        -5.6873    2.2667   53.1527 H       1  ZINC000269356812    0.1500
     39 H39        -5.4997    3.7141   55.2388 H       1  ZINC000269356812    0.1400
     40 H40        -7.4033    3.4168   56.8902 H       1  ZINC000269356812    0.1700
@<TRIPOS>BOND
     1     1     2    1
     2     1    26    1
     3     1    27    1
     4     1    28    1
     5     2     3    1
     6     2     4    1
     7     2    21    1
     8     3    29    1
     9     4     5    1
    10     4    30    1
    11     4    31    1
    12     5     6   am
    13     5    32    1
    14     6     7    2
    15     6     8    1
    16     8     9    2
    17     8    10   am
    18    10    11    1
    19    10    33    1
    20    11    20   ar
    21    11    12   ar
    22    12    13   ar
    23    12    34    1
    24    13    14   ar
    25    13    35    1
    26    14    15    1
    27    14    19   ar
    28    15    16    1
    29    16    17    1
    30    16    18    1
    31    16    36    1
    32    19    20   ar
    33    20    37    1
    34    21    25    1
    35    21    22    2
    36    22    23    1
    37    22    38    1
    38    23    24    2
    39    23    39    1
    40    24    25    1
    41    24    40    1
@<TRIPOS>SUBSTRUCTURE
     1 ZINC000269356812        1 TEMP              0 ****  ****    0 ROOT


##########                                Name:    ZINC000762020937
##########                DOCK_Rotatable_Bonds:                  10
##########                         Heavy_Atoms:                  28
##########                    Molecular_Weight:             391.467
##########                DOCK_Rotatable_Bonds:                  10
##########                       Formal_Charge:         -1.8999e-07
##########                     HBond_Acceptors:                   8
##########                        HBond_Donors:                   1
##########                         Heavy_Atoms:                  28
##########                          Grid_Score:          -31.072275
##########                     Grid_vdw_energy:          -30.599709
##########                      Grid_es_energy:           -0.472567
##########           Internal_energy_repulsive:           23.135258

@<TRIPOS>MOLECULE
ZINC000762020937
 57 58 1 0 0
SMALL
USER_CHARGES


@<TRIPOS>ATOM
      1 C1         -3.7721    2.7660   49.2899 C.3     1  ZINC000762020937    0.0200
      2 O2         -5.1158    2.7377   48.8044 O.3     1  ZINC000762020937   -0.3000
      3 C3         -6.0503    2.1615   49.6069 C.ar    1  ZINC000762020937    0.1100
      4 C4         -6.0592    0.7881   49.7866 C.ar    1  ZINC000762020937   -0.1700
      5 C5         -7.0099    0.2037   50.6034 C.ar    1  ZINC000762020937   -0.1000
      6 C6         -7.9527    0.9872   51.2416 C.ar    1  ZINC000762020937   -0.1000
      7 C7         -8.9868    0.3452   52.1303 C.3     1  ZINC000762020937    0.0200
      8 C8         -8.7740    0.7932   53.5533 C.2     1  ZINC000762020937    0.1900
      9 N9         -8.2713    1.9395   53.9444 N.2     1  ZINC000762020937   -0.4700
     10 C10        -8.2729    1.8958   55.2885 C.2     1  ZINC000762020937    0.1600
     11 C11        -7.7904    2.9806   56.2167 C.3     1  ZINC000762020937    0.2600
     12 H12        -8.5539    3.7542   56.2995 H       1  ZINC000762020937    0.1200
     13 N13        -7.5282    2.4098   57.5402 N.am    1  ZINC000762020937   -0.7100
     14 C14        -8.4784    2.4574   58.4950 C.2     1  ZINC000762020937    0.6600
     15 O15        -9.5530    2.9723   58.2575 O.2     1  ZINC000762020937   -0.5600
     16 O16        -8.2367    1.9342   59.7118 O.3     1  ZINC000762020937   -0.3600
     17 C17        -9.0717    0.8219   60.1287 C.3     1  ZINC000762020937    0.1400
     18 C18       -10.4353    1.3489   60.5801 C.3     1  ZINC000762020937   -0.1800
     19 C19        -9.2603   -0.1420   58.9556 C.3     1  ZINC000762020937   -0.1400
     20 C20        -8.3993    0.0866   61.2899 C.3     1  ZINC000762020937   -0.1800
     21 C21        -6.5030    3.5922   55.6609 C.3     1  ZINC000762020937   -0.1000
     22 C22        -6.7963    4.9923   55.1182 C.3     1  ZINC000762020937   -0.1400
     23 C23        -5.4597    3.6856   56.7761 C.3     1  ZINC000762020937   -0.1400
     24 N24        -8.7673    0.7466   55.6400 N.2     1  ZINC000762020937   -0.3700
     25 O25        -9.0667    0.1004   54.6581 O.3     1  ZINC000762020937    0.0900
     26 C26        -7.9491    2.3590   51.0668 C.ar    1  ZINC000762020937   -0.1500
     27 C27        -6.9964    2.9512   50.2542 C.ar    1  ZINC000762020937    0.1000
     28 O28        -6.9914    4.3000   50.0812 O.3     1  ZINC000762020937   -0.3100
     29 C29        -7.9135    4.8355   49.1298 C.3     1  ZINC000762020937    0.0200
     30 H30        -3.7360    3.3214   50.2271 H       1  ZINC000762020937    0.0600
     31 H31        -3.4251    1.7465   49.4582 H       1  ZINC000762020937    0.0600
     32 H32        -3.1303    3.2515   48.5547 H       1  ZINC000762020937    0.1000
     33 H33        -5.3239    0.1735   49.2886 H       1  ZINC000762020937    0.1400
     34 H34        -7.0157   -0.8673   50.7427 H       1  ZINC000762020937    0.1300
     35 H35        -9.9828    0.6413   51.8012 H       1  ZINC000762020937    0.1200
     36 H36        -8.8924   -0.7392   52.0728 H       1  ZINC000762020937    0.1200
     37 H37        -6.6707    1.9976   57.7294 H       1  ZINC000762020937    0.4100
     38 H38       -10.9143    1.8728   59.7529 H       1  ZINC000762020937    0.0600
     39 H39       -11.0621    0.5140   60.8931 H       1  ZINC000762020937    0.0700
     40 H40       -10.3009    2.0356   61.4159 H       1  ZINC000762020937    0.0900
     41 H41        -8.2889   -0.5175   58.6340 H       1  ZINC000762020937    0.0700
     42 H42        -9.8873   -0.9770   59.2686 H       1  ZINC000762020937    0.0800
     43 H43        -9.7394    0.3818   58.1285 H       1  ZINC000762020937    0.0700
     44 H44        -8.2649    0.7733   62.1256 H       1  ZINC000762020937    0.0900
     45 H45        -9.0261   -0.7484   61.6029 H       1  ZINC000762020937    0.0700
     46 H46        -7.4279   -0.2889   60.9683 H       1  ZINC000762020937    0.0600
     47 H47        -6.1198    2.9638   54.8567 H       1  ZINC000762020937    0.0800
     48 H48        -7.1793    5.6207   55.9222 H       1  ZINC000762020937    0.0600
     49 H49        -5.8790    5.4280   54.7222 H       1  ZINC000762020937    0.0600
     50 H50        -7.5394    4.9257   54.3237 H       1  ZINC000762020937    0.0500
     51 H51        -5.2508    2.6881   57.1627 H       1  ZINC000762020937    0.0500
     52 H52        -4.5424    4.1213   56.3801 H       1  ZINC000762020937    0.0600
     53 H53        -5.8428    4.3140   57.5801 H       1  ZINC000762020937    0.0700
     54 H54        -8.6870    2.9689   51.5667 H       1  ZINC000762020937    0.1400
     55 H55        -8.9310    4.5821   49.4276 H       1  ZINC000762020937    0.0600
     56 H56        -7.8059    5.9194   49.0898 H       1  ZINC000762020937    0.1000
     57 H57        -7.7070    4.4134   48.1464 H       1  ZINC000762020937    0.0600
@<TRIPOS>BOND
     1     1     2    1
     2     1    30    1
     3     1    31    1
     4     1    32    1
     5     2     3    1
     6     3    27   ar
     7     3     4   ar
     8     4     5   ar
     9     4    33    1
    10     5     6   ar
    11     5    34    1
    12     6     7    1
    13     6    26   ar
    14     7     8    1
    15     7    35    1
    16     7    36    1
    17     8    25    1
    18     8     9    2
    19     9    10    1
    20    10    11    1
    21    10    24    2
    22    11    12    1
    23    11    13    1
    24    11    21    1
    25    13    14   am
    26    13    37    1
    27    14    15    2
    28    14    16    1
    29    16    17    1
    30    17    18    1
    31    17    19    1
    32    17    20    1
    33    18    38    1
    34    18    39    1
    35    18    40    1
    36    19    41    1
    37    19    42    1
    38    19    43    1
    39    20    44    1
    40    20    45    1
    41    20    46    1
    42    21    22    1
    43    21    23    1
    44    21    47    1
    45    22    48    1
    46    22    49    1
    47    22    50    1
    48    23    51    1
    49    23    52    1
    50    23    53    1
    51    24    25    1
    52    26    27   ar
    53    26    54    1
    54    27    28    1
    55    28    29    1
    56    29    55    1
    57    29    56    1
    58    29    57    1
@<TRIPOS>SUBSTRUCTURE
     1 ZINC000762020937        1 TEMP              0 ****  ****    0 ROOT


##########                                Name:    ZINC000420486261
##########                DOCK_Rotatable_Bonds:                   7
##########                         Heavy_Atoms:                  26
##########                    Molecular_Weight:             353.378
##########                DOCK_Rotatable_Bonds:                   7
##########                       Formal_Charge:        -2.98023e-08
##########                     HBond_Acceptors:                   7
##########                        HBond_Donors:                   0
##########                         Heavy_Atoms:                  26
##########                          Grid_Score:          -31.061258
##########                     Grid_vdw_energy:          -30.837954
##########                      Grid_es_energy:           -0.223305
##########           Internal_energy_repulsive:            6.931876

@<TRIPOS>MOLECULE
ZINC000420486261
 45 47 1 0 0
SMALL
USER_CHARGES


@<TRIPOS>ATOM
      1 C1         -7.1539    2.0875   57.2164 C.3     1  ZINC000420486261    0.0400
      2 O2         -6.9102    1.7174   55.8336 O.3     1  ZINC000420486261   -0.3500
      3 C3         -7.9718    1.3049   55.1149 C.2     1  ZINC000420486261    0.5100
      4 O4         -9.0718    1.2610   55.6272 O.2     1  ZINC000420486261   -0.4900
      5 C5         -7.7976    0.9050   53.7001 C.ar    1  ZINC000420486261   -0.0700
      6 C6         -8.5381   -0.1494   53.1556 C.ar    1  ZINC000420486261   -0.0900
      7 C7         -8.3478   -0.4937   51.8286 C.ar    1  ZINC000420486261    0.1100
      8 N8         -7.4841    0.1535   51.0768 N.ar    1  ZINC000420486261   -0.4200
      9 C9         -6.7588    1.1603   51.5481 C.ar    1  ZINC000420486261    0.1900
     10 C10        -5.8020    1.8537   50.6571 C.2     1  ZINC000420486261    0.2200
     11 N11        -4.5655    1.4809   50.3904 N.2     1  ZINC000420486261   -0.4300
     12 C12        -4.0844    2.4093   49.5370 C.2     1  ZINC000420486261    0.2200
     13 C13        -2.7267    2.4346   48.9402 C.ar    1  ZINC000420486261   -0.0600
     14 C14        -2.5402    2.0651   47.6103 C.ar    1  ZINC000420486261   -0.0300
     15 C15        -1.2749    2.0903   47.0596 C.ar    1  ZINC000420486261   -0.1600
     16 C16        -0.1897    2.4815   47.8238 C.ar    1  ZINC000420486261   -0.0600
     17 C17        -0.3633    2.8501   49.1442 C.ar    1  ZINC000420486261   -0.2200
     18 C18        -1.6291    2.8351   49.7086 C.ar    1  ZINC000420486261    0.1700
     19 O19        -1.8011    3.1972   51.0060 O.3     1  ZINC000420486261   -0.2900
     20 C20        -2.3585    4.4902   51.2502 C.3     1  ZINC000420486261    0.0600
     21 C21        -1.7018    5.1029   52.4888 C.3     1  ZINC000420486261   -0.0900
     22 C22        -1.6444    4.0583   53.6052 C.3     1  ZINC000420486261   -0.1500
     23 C23        -0.2825    5.5569   52.1417 C.3     1  ZINC000420486261   -0.1500
     24 N24        -5.0375    3.2831   49.3331 N.2     1  ZINC000420486261   -0.3400
     25 O25        -6.0289    2.9786   49.9617 O.3     1  ZINC000420486261    0.1000
     26 C26        -6.8932    1.5746   52.8717 C.ar    1  ZINC000420486261   -0.0700
     27 H27        -6.2179    2.3999   57.6793 H       1  ZINC000420486261    0.1100
     28 H28        -7.8689    2.9095   57.2518 H       1  ZINC000420486261    0.0700
     29 H29        -7.5580    1.2310   57.7559 H       1  ZINC000420486261    0.0700
     30 H30        -9.2496   -0.6886   53.7634 H       1  ZINC000420486261    0.1600
     31 H31        -8.9173   -1.3072   51.4038 H       1  ZINC000420486261    0.1800
     32 H32        -3.3846    1.7588   47.0108 H       1  ZINC000420486261    0.1400
     33 H33        -1.1312    1.8031   46.0284 H       1  ZINC000420486261    0.1300
     34 H34         0.7976    2.4984   47.3865 H       1  ZINC000420486261    0.1300
     35 H35         0.4874    3.1546   49.7357 H       1  ZINC000420486261    0.1400
     36 H36        -2.1781    5.1323   50.3881 H       1  ZINC000420486261    0.0600
     37 H37        -3.4318    4.3977   51.4161 H       1  ZINC000420486261    0.0600
     38 H38        -2.2859    5.9604   52.8231 H       1  ZINC000420486261    0.0800
     39 H39        -1.0603    3.2009   53.2708 H       1  ZINC000420486261    0.0600
     40 H40        -1.1766    4.4948   54.4876 H       1  ZINC000420486261    0.0700
     41 H41        -2.6555    3.7349   53.8525 H       1  ZINC000420486261    0.0600
     42 H42         0.3017    4.6995   51.8074 H       1  ZINC000420486261    0.0500
     43 H43        -0.3233    6.3011   51.3464 H       1  ZINC000420486261    0.0600
     44 H44         0.1854    5.9935   53.0241 H       1  ZINC000420486261    0.0600
     45 H45        -6.3024    2.3942   53.2531 H       1  ZINC000420486261    0.1600
@<TRIPOS>BOND
     1     1     2    1
     2     1    27    1
     3     1    28    1
     4     1    29    1
     5     2     3    1
     6     3     4    2
     7     3     5    1
     8     5    26   ar
     9     5     6   ar
    10     6     7   ar
    11     6    30    1
    12     7     8   ar
    13     7    31    1
    14     8     9   ar
    15     9    10    1
    16     9    26   ar
    17    10    25    1
    18    10    11    2
    19    11    12    1
    20    12    13    1
    21    12    24    2
    22    13    18   ar
    23    13    14   ar
    24    14    15   ar
    25    14    32    1
    26    15    16   ar
    27    15    33    1
    28    16    17   ar
    29    16    34    1
    30    17    18   ar
    31    17    35    1
    32    18    19    1
    33    19    20    1
    34    20    21    1
    35    20    36    1
    36    20    37    1
    37    21    22    1
    38    21    23    1
    39    21    38    1
    40    22    39    1
    41    22    40    1
    42    22    41    1
    43    23    42    1
    44    23    43    1
    45    23    44    1
    46    24    25    1
    47    26    45    1
@<TRIPOS>SUBSTRUCTURE
     1 ZINC000420486261        1 TEMP              0 ****  ****    0 ROOT


##########                                Name:    ZINC000416583757
##########                DOCK_Rotatable_Bonds:                   7
##########                         Heavy_Atoms:                  20
##########                    Molecular_Weight:             380.693
##########                DOCK_Rotatable_Bonds:                   7
##########                       Formal_Charge:         1.04308e-07
##########                     HBond_Acceptors:                   7
##########                        HBond_Donors:                   1
##########                         Heavy_Atoms:                  20
##########                          Grid_Score:          -31.054752
##########                     Grid_vdw_energy:          -29.308807
##########                      Grid_es_energy:           -1.745946
##########           Internal_energy_repulsive:           16.056274

@<TRIPOS>MOLECULE
ZINC000416583757
 35 35 1 0 0
SMALL
USER_CHARGES


@<TRIPOS>ATOM
      1 C1         -7.3377    2.6538   50.4282 C.3     1  ZINC000416583757   -0.1500
      2 C2         -6.8327    1.8956   51.6574 C.3     1  ZINC000416583757   -0.0200
      3 H3         -7.1511    2.4154   52.5611 H       1  ZINC000416583757    0.1200
      4 C4         -7.3872    0.5319   51.6546 C.1     1  ZINC000416583757    0.2100
      5 N5         -7.8149   -0.5204   51.6524 N.1     1  ZINC000416583757   -0.4200
      6 C6         -5.3048    1.8250   51.6210 C.3     1  ZINC000416583757    0.1300
      7 N7         -4.8683    1.3733   50.2975 N.am    1  ZINC000416583757   -1.0100
      8 C8         -5.2526    0.0451   49.8133 C.3     1  ZINC000416583757    0.0800
      9 S9         -3.9404    2.3639   49.3489 S.o2    1  ZINC000416583757    2.7800
     10 O10        -3.5608    1.5943   48.2162 O.2     1  ZINC000416583757   -0.9700
     11 O11        -4.6399    3.5969   49.2518 O.2     1  ZINC000416583757   -0.9700
     12 N12        -2.5476    2.6812   50.1868 N.am    1  ZINC000416583757   -1.1300
     13 C13        -1.5180    3.5407   49.5975 C.3     1  ZINC000416583757    0.1600
     14 C14        -0.2099    2.7944   49.5457 C.ar    1  ZINC000416583757   -0.0800
     15 C15         0.5735    2.6940   50.6799 C.ar    1  ZINC000416583757   -0.0800
     16 C16         1.7745    2.0084   50.6329 C.ar    1  ZINC000416583757   -0.0300
     17 Cl17        2.7582    1.8818   52.0578 Cl      1  ZINC000416583757   -0.0500
     18 C18         2.1909    1.4237   49.4507 C.ar    1  ZINC000416583757   -0.0700
     19 C19         1.4064    1.5245   48.3159 C.ar    1  ZINC000416583757   -0.0800
     20 Br20        1.9749    0.7253   46.6992 Br      1  ZINC000416583757   -0.0300
     21 C21         0.2035    2.2056   48.3653 C.ar    1  ZINC000416583757   -0.0700
     22 H22        -8.4256    2.5996   50.3894 H       1  ZINC000416583757    0.0700
     23 H23        -7.0279    3.6969   50.4922 H       1  ZINC000416583757    0.0800
     24 H24        -6.9192    2.2051   49.5272 H       1  ZINC000416583757    0.0700
     25 H25        -4.8905    2.8129   51.8227 H       1  ZINC000416583757    0.0900
     26 H26        -4.9555    1.1230   52.3780 H       1  ZINC000416583757    0.1000
     27 H27        -6.1989    0.1137   49.2766 H       1  ZINC000416583757    0.0700
     28 H28        -4.4814   -0.3345   49.1430 H       1  ZINC000416583757    0.0800
     29 H29        -5.3635   -0.6324   50.6600 H       1  ZINC000416583757    0.0800
     30 H30        -2.4136    2.2979   51.0676 H       1  ZINC000416583757    0.4200
     31 H31        -1.8152    3.8236   48.5877 H       1  ZINC000416583757    0.0800
     32 H32        -1.4010    4.4373   50.2063 H       1  ZINC000416583757    0.1000
     33 H33         0.2483    3.1510   51.6028 H       1  ZINC000416583757    0.1500
     34 H34         3.1284    0.8887   49.4134 H       1  ZINC000416583757    0.1500
     35 H35        -0.4090    2.2843   47.4792 H       1  ZINC000416583757    0.1400
@<TRIPOS>BOND
     1     1     2    1
     2     1    22    1
     3     1    23    1
     4     1    24    1
     5     2     3    1
     6     2     4    1
     7     2     6    1
     8     4     5    3
     9     6     7    1
    10     6    25    1
    11     6    26    1
    12     7     8    1
    13     7     9   am
    14     8    27    1
    15     8    28    1
    16     8    29    1
    17     9    10    2
    18     9    11    2
    19     9    12   am
    20    12    13    1
    21    12    30    1
    22    13    14    1
    23    13    31    1
    24    13    32    1
    25    14    21   ar
    26    14    15   ar
    27    15    16   ar
    28    15    33    1
    29    16    17    1
    30    16    18   ar
    31    18    19   ar
    32    18    34    1
    33    19    20    1
    34    19    21   ar
    35    21    35    1
@<TRIPOS>SUBSTRUCTURE
     1 ZINC000416583757        1 TEMP              0 ****  ****    0 ROOT


##########                                Name:    ZINC000124554441
##########                DOCK_Rotatable_Bonds:                   9
##########                         Heavy_Atoms:                  26
##########                    Molecular_Weight:             375.898
##########                DOCK_Rotatable_Bonds:                   9
##########                       Formal_Charge:         -0.00999991
##########                     HBond_Acceptors:                   6
##########                        HBond_Donors:                   1
##########                         Heavy_Atoms:                  26
##########                          Grid_Score:          -31.053148
##########                     Grid_vdw_energy:          -30.192011
##########                      Grid_es_energy:           -0.861137
##########           Internal_energy_repulsive:           23.933725

@<TRIPOS>MOLECULE
ZINC000124554441
 52 53 1 0 0
SMALL
USER_CHARGES


@<TRIPOS>ATOM
      1 C1         -9.2191    6.6968   47.9555 C.3     1  ZINC000124554441   -0.1500
      2 C2        -10.7412    6.8493   47.9818 C.3     1  ZINC000124554441   -0.1300
      3 C3        -11.3943    5.5029   47.6634 C.3     1  ZINC000124554441   -0.1200
      4 C4        -10.9666    4.4691   48.7071 C.3     1  ZINC000124554441   -0.1200
      5 C5        -11.4080    4.9341   50.0962 C.3     1  ZINC000124554441   -0.1300
      6 C6        -11.0533    3.8628   51.1293 C.3     1  ZINC000124554441    0.1200
      7 N7         -9.6078    3.6257   51.1103 N.am    1  ZINC000124554441   -0.7300
      8 C8         -9.1128    2.4453   51.5324 C.2     1  ZINC000124554441    0.5200
      9 O9         -9.8641    1.5799   51.9295 O.2     1  ZINC000124554441   -0.5300
     10 C10        -7.6259    2.2007   51.5111 C.3     1  ZINC000124554441   -0.1200
     11 H11        -7.1670    2.6733   52.3794 H       1  ZINC000124554441    0.1000
     12 C12        -7.3554    0.6948   51.5465 C.3     1  ZINC000124554441   -0.1000
     13 C13        -5.8455    0.4462   51.5580 C.3     1  ZINC000124554441   -0.1400
     14 C14        -5.2280    1.0183   50.2780 C.3     1  ZINC000124554441    0.0900
     15 N15        -5.6057    2.4335   50.1624 N.am    1  ZINC000124554441   -0.6000
     16 C16        -4.6647    3.3840   49.9967 C.2     1  ZINC000124554441    0.5600
     17 O17        -4.9900    4.5513   49.9024 O.2     1  ZINC000124554441   -0.5200
     18 C18        -3.2360    3.0066   49.9296 C.ar    1  ZINC000124554441   -0.0900
     19 C19        -2.4620    2.9951   51.0916 C.ar    1  ZINC000124554441   -0.0900
     20 C20        -1.1317    2.6439   51.0304 C.ar    1  ZINC000124554441   -0.0600
     21 C21        -0.5557    2.2995   49.8056 C.ar    1  ZINC000124554441    0.0100
     22 C22         0.8275    1.9344   49.7418 C.1     1  ZINC000124554441    0.2400
     23 N23         1.9248    1.6446   49.6913 N.1     1  ZINC000124554441   -0.3800
     24 C24        -1.3304    2.3109   48.6417 C.ar    1  ZINC000124554441    0.0000
     25 Cl25       -0.6160    1.8825   47.1186 Cl      1  ZINC000124554441   -0.0400
     26 C26        -2.6636    2.6567   48.7054 C.ar    1  ZINC000124554441   -0.0600
     27 C27        -7.0286    2.7934   50.2309 C.3     1  ZINC000124554441    0.1200
     28 H28        -8.9148    5.9604   48.6994 H       1  ZINC000124554441    0.0500
     29 H29        -8.9042    6.3651   46.9661 H       1  ZINC000124554441    0.0500
     30 H30        -8.7538    7.6560   48.1823 H       1  ZINC000124554441    0.0500
     31 H31       -11.0561    7.1809   48.9712 H       1  ZINC000124554441    0.0600
     32 H32       -11.0455    7.5857   47.2379 H       1  ZINC000124554441    0.0600
     33 H33       -12.4787    5.6114   47.6825 H       1  ZINC000124554441    0.0600
     34 H34       -11.0797    5.1715   46.6737 H       1  ZINC000124554441    0.0600
     35 H35       -11.4319    3.5098   48.4803 H       1  ZINC000124554441    0.0700
     36 H36        -9.8823    4.3605   48.6878 H       1  ZINC000124554441    0.0700
     37 H37       -10.8976    5.8640   50.3473 H       1  ZINC000124554441    0.0700
     38 H38       -12.4854    5.0989   50.0990 H       1  ZINC000124554441    0.0700
     39 H39       -11.3529    4.2012   52.1212 H       1  ZINC000124554441    0.0700
     40 H40       -11.5765    2.9376   50.8877 H       1  ZINC000124554441    0.0700
     41 H41        -9.0068    4.3182   50.7938 H       1  ZINC000124554441    0.4000
     42 H42        -7.8008    0.2669   52.4446 H       1  ZINC000124554441    0.0800
     43 H43        -7.7939    0.2262   50.6654 H       1  ZINC000124554441    0.0800
     44 H44        -5.4028    0.9354   52.4257 H       1  ZINC000124554441    0.0700
     45 H45        -5.6536   -0.6257   51.6068 H       1  ZINC000124554441    0.0900
     46 H46        -4.1424    0.9326   50.3261 H       1  ZINC000124554441    0.1000
     47 H47        -5.6022    0.4685   49.4145 H       1  ZINC000124554441    0.0800
     48 H48        -2.9067    3.2621   52.0389 H       1  ZINC000124554441    0.1500
     49 H49        -0.5337    2.6353   51.9297 H       1  ZINC000124554441    0.1500
     50 H50        -3.2627    2.6658   47.8069 H       1  ZINC000124554441    0.1500
     51 H51        -7.5501    2.3885   49.3638 H       1  ZINC000124554441    0.0800
     52 H52        -7.1306    3.8786   50.2476 H       1  ZINC000124554441    0.1000
@<TRIPOS>BOND
     1     1     2    1
     2     1    28    1
     3     1    29    1
     4     1    30    1
     5     2     3    1
     6     2    31    1
     7     2    32    1
     8     3     4    1
     9     3    33    1
    10     3    34    1
    11     4     5    1
    12     4    35    1
    13     4    36    1
    14     5     6    1
    15     5    37    1
    16     5    38    1
    17     6     7    1
    18     6    39    1
    19     6    40    1
    20     7     8   am
    21     7    41    1
    22     8     9    2
    23     8    10    1
    24    10    11    1
    25    10    27    1
    26    10    12    1
    27    12    13    1
    28    12    42    1
    29    12    43    1
    30    13    14    1
    31    13    44    1
    32    13    45    1
    33    14    15    1
    34    14    46    1
    35    14    47    1
    36    15    16   am
    37    15    27    1
    38    16    17    2
    39    16    18    1
    40    18    26   ar
    41    18    19   ar
    42    19    20   ar
    43    19    48    1
    44    20    21   ar
    45    20    49    1
    46    21    22    1
    47    21    24   ar
    48    22    23    3
    49    24    25    1
    50    24    26   ar
    51    26    50    1
    52    27    51    1
    53    27    52    1
@<TRIPOS>SUBSTRUCTURE
     1 ZINC000124554441        1 TEMP              0 ****  ****    0 ROOT


##########                                Name:    ZINC000484424341
##########                DOCK_Rotatable_Bonds:                   7
##########                         Heavy_Atoms:                  26
##########                    Molecular_Weight:             359.425
##########                DOCK_Rotatable_Bonds:                   7
##########                       Formal_Charge:          -0.0100009
##########                     HBond_Acceptors:                   7
##########                        HBond_Donors:                   1
##########                         Heavy_Atoms:                  26
##########                          Grid_Score:          -31.052973
##########                     Grid_vdw_energy:          -29.501112
##########                      Grid_es_energy:           -1.551861
##########           Internal_energy_repulsive:            9.048256

@<TRIPOS>MOLECULE
ZINC000484424341
 51 53 1 0 0
SMALL
USER_CHARGES


@<TRIPOS>ATOM
      1 C1        -13.2615   -1.6299   58.8896 C.3     1  ZINC000484424341    0.0300
      2 O2        -11.9737   -2.2463   58.8309 O.3     1  ZINC000484424341   -0.3800
      3 C3        -11.1108   -1.6960   57.8335 C.3     1  ZINC000484424341    0.1300
      4 H4        -11.6953   -1.0883   57.1428 H       1  ZINC000484424341    0.0700
      5 C5        -10.4310   -2.8308   57.0648 C.3     1  ZINC000484424341   -0.1700
      6 C6        -10.0626   -0.8381   58.4940 C.ar    1  ZINC000484424341   -0.0700
      7 C7         -9.4264    0.1541   57.7712 C.ar    1  ZINC000484424341   -0.1000
      8 C8         -8.4637    0.9438   58.3735 C.ar    1  ZINC000484424341   -0.1000
      9 C9         -8.1348    0.7436   59.6994 C.ar    1  ZINC000484424341   -0.1100
     10 C10        -8.7723   -0.2526   60.4289 C.ar    1  ZINC000484424341    0.1400
     11 N11        -8.4423   -0.4577   61.7710 N.am    1  ZINC000484424341   -0.6400
     12 C12        -9.3258   -0.1408   62.7382 C.2     1  ZINC000484424341    0.5100
     13 O13       -10.4082    0.3226   62.4434 O.2     1  ZINC000484424341   -0.4900
     14 C14        -8.9730   -0.3600   64.1728 C.2     1  ZINC000484424341    0.5200
     15 O15        -9.4909   -1.2652   64.7936 O.2     1  ZINC000484424341   -0.5200
     16 N16        -8.0793    0.4472   64.7779 N.am    1  ZINC000484424341   -0.5800
     17 C17        -7.6426    0.3449   66.1780 C.3     1  ZINC000484424341    0.1100
     18 C18        -6.5973    1.4553   66.4143 C.3     1  ZINC000484424341   -0.1500
     19 C19        -6.0863    1.7620   64.9818 C.3     1  ZINC000484424341    0.1500
     20 H20        -5.3199    1.0483   64.6792 H       1  ZINC000484424341    0.1100
     21 N21        -5.5876    3.1361   64.8851 N.am    1  ZINC000484424341   -0.6100
     22 C22        -6.4443    4.3214   64.7623 C.3     1  ZINC000484424341    0.1000
     23 C23        -5.5432    5.5211   65.1294 C.3     1  ZINC000484424341   -0.1300
     24 C24        -4.1370    4.9748   64.7896 C.3     1  ZINC000484424341   -0.1600
     25 C25        -4.2866    3.4737   64.9030 C.2     1  ZINC000484424341    0.5200
     26 O26        -3.3664    2.6886   64.9901 O.2     1  ZINC000484424341   -0.5200
     27 C27        -7.3729    1.5751   64.1437 C.3     1  ZINC000484424341    0.0900
     28 C28        -9.7426   -1.0401   59.8224 C.ar    1  ZINC000484424341   -0.1300
     29 H29       -13.7642   -1.7465   57.9295 H       1  ZINC000484424341    0.0400
     30 H30       -13.8559   -2.1038   59.6709 H       1  ZINC000484424341    0.0900
     31 H31       -13.1468   -0.5693   59.1133 H       1  ZINC000484424341    0.0400
     32 H32        -9.8466   -3.4385   57.7556 H       1  ZINC000484424341    0.0700
     33 H33       -11.1892   -3.4512   56.5871 H       1  ZINC000484424341    0.0600
     34 H34        -9.7728   -2.4109   56.3040 H       1  ZINC000484424341    0.0700
     35 H35        -9.6814    0.3127   56.7338 H       1  ZINC000484424341    0.1300
     36 H36        -7.9684    1.7177   57.8058 H       1  ZINC000484424341    0.1300
     37 H37        -7.3829    1.3603   60.1691 H       1  ZINC000484424341    0.1300
     38 H38        -7.5773   -0.8281   62.0066 H       1  ZINC000484424341    0.4200
     39 H39        -8.4938    0.4894   66.8433 H       1  ZINC000484424341    0.0800
     40 H40        -7.1924   -0.6319   66.3555 H       1  ZINC000484424341    0.0800
     41 H41        -7.0637    2.3367   66.8543 H       1  ZINC000484424341    0.0900
     42 H42        -5.7849    1.0925   67.0441 H       1  ZINC000484424341    0.0900
     43 H43        -6.8064    4.4207   63.7391 H       1  ZINC000484424341    0.0800
     44 H44        -7.2831    4.2538   65.4551 H       1  ZINC000484424341    0.0800
     45 H45        -5.7824    6.3905   64.5170 H       1  ZINC000484424341    0.0900
     46 H46        -5.6234    5.7591   66.1901 H       1  ZINC000484424341    0.0800
     47 H47        -3.8523    5.2582   63.7764 H       1  ZINC000484424341    0.1100
     48 H48        -3.4028    5.3377   65.5088 H       1  ZINC000484424341    0.1000
     49 H49        -7.1214    1.3368   63.1103 H       1  ZINC000484424341    0.0900
     50 H50        -7.9881    2.4739   64.1876 H       1  ZINC000484424341    0.0900
     51 H51       -10.2402   -1.8151   60.3865 H       1  ZINC000484424341    0.1300
@<TRIPOS>BOND
     1     1     2    1
     2     1    29    1
     3     1    30    1
     4     1    31    1
     5     2     3    1
     6     3     4    1
     7     3     5    1
     8     3     6    1
     9     5    32    1
    10     5    33    1
    11     5    34    1
    12     6    28   ar
    13     6     7   ar
    14     7     8   ar
    15     7    35    1
    16     8     9   ar
    17     8    36    1
    18     9    10   ar
    19     9    37    1
    20    10    11    1
    21    10    28   ar
    22    11    12   am
    23    11    38    1
    24    12    13    2
    25    12    14    1
    26    14    15    2
    27    14    16   am
    28    16    27    1
    29    16    17    1
    30    17    18    1
    31    17    39    1
    32    17    40    1
    33    18    19    1
    34    18    41    1
    35    18    42    1
    36    19    20    1
    37    19    21    1
    38    19    27    1
    39    21    25   am
    40    21    22    1
    41    22    23    1
    42    22    43    1
    43    22    44    1
    44    23    24    1
    45    23    45    1
    46    23    46    1
    47    24    25    1
    48    24    47    1
    49    24    48    1
    50    25    26    2
    51    27    49    1
    52    27    50    1
    53    28    51    1
@<TRIPOS>SUBSTRUCTURE
     1 ZINC000484424341        1 TEMP              0 ****  ****    0 ROOT


##########                                Name:    ZINC000460163972
##########                DOCK_Rotatable_Bonds:                   7
##########                         Heavy_Atoms:                  28
##########                    Molecular_Weight:             408.469
##########                DOCK_Rotatable_Bonds:                   7
##########                       Formal_Charge:          -0.0100001
##########                     HBond_Acceptors:                   8
##########                        HBond_Donors:                   2
##########                         Heavy_Atoms:                  28
##########                          Grid_Score:          -31.031017
##########                     Grid_vdw_energy:          -29.127048
##########                      Grid_es_energy:           -1.903968
##########           Internal_energy_repulsive:           49.067310

@<TRIPOS>MOLECULE
ZINC000460163972
 50 52 1 0 0
SMALL
USER_CHARGES


@<TRIPOS>ATOM
      1 C1        -10.4709   -0.2277   56.9114 C.3     1  ZINC000460163972   -0.1400
      2 C2         -9.5435    0.2509   55.8243 C.ar    1  ZINC000460163972    0.0100
      3 C3         -9.7224   -0.1840   54.5240 C.ar    1  ZINC000460163972   -0.1300
      4 C4         -8.8740    0.2528   53.5252 C.ar    1  ZINC000460163972   -0.0600
      5 C5         -7.8411    1.1297   53.8280 C.ar    1  ZINC000460163972    0.1100
      6 N6         -6.9802    1.5744   52.8185 N.am    1  ZINC000460163972   -0.6700
      7 C7         -6.2202    0.6898   52.1428 C.2     1  ZINC000460163972    0.5200
      8 O8         -6.2825   -0.4917   52.4099 O.2     1  ZINC000460163972   -0.5100
      9 C9         -5.2931    1.1686   51.0555 C.3     1  ZINC000460163972   -0.0700
     10 H10        -4.2774    1.2321   51.4460 H       1  ZINC000460163972    0.1200
     11 C11        -5.3288    0.1843   49.8848 C.3     1  ZINC000460163972   -0.1500
     12 C12        -5.7350    2.5292   50.5817 C.ar    1  ZINC000460163972   -0.0600
     13 C13        -6.8022    2.6439   49.7109 C.ar    1  ZINC000460163972   -0.0700
     14 C14        -7.2095    3.8910   49.2746 C.ar    1  ZINC000460163972   -0.1200
     15 C15        -6.5488    5.0261   49.7102 C.ar    1  ZINC000460163972    0.0700
     16 F16        -6.9465    6.2452   49.2848 F       1  ZINC000460163972   -0.1300
     17 C17        -5.4783    4.9110   50.5844 C.ar    1  ZINC000460163972    0.0700
     18 F18        -4.8316    6.0179   51.0111 F       1  ZINC000460163972   -0.1300
     19 C19        -5.0762    3.6618   51.0229 C.ar    1  ZINC000460163972   -0.1200
     20 C20        -7.6642    1.5650   55.1351 C.ar    1  ZINC000460163972    0.0000
     21 C21        -6.5446    2.5171   55.4681 C.3     1  ZINC000460163972   -0.1500
     22 C22        -8.5186    1.1284   56.1282 C.ar    1  ZINC000460163972   -0.6700
     23 S23        -8.2955    1.6804   57.7865 S.o2    1  ZINC000460163972    2.7000
     24 O24        -9.5824    1.6708   58.3892 O.2     1  ZINC000460163972   -0.9500
     25 O25        -7.1889    0.9557   58.3053 O.2     1  ZINC000460163972   -0.9500
     26 N26        -7.8242    3.2665   57.7158 N.am    1  ZINC000460163972   -1.0900
     27 C27        -8.6960    4.2624   57.0881 C.3     1  ZINC000460163972    0.0800
     28 C28        -9.7034    4.9850   57.9849 C.3     1  ZINC000460163972   -0.1800
     29 C29        -8.4744    5.7299   57.4600 C.3     1  ZINC000460163972   -0.1900
     30 H30       -11.2654    0.5038   57.0592 H       1  ZINC000460163972    0.1000
     31 H31       -10.9066   -1.1841   56.6224 H       1  ZINC000460163972    0.0800
     32 H32        -9.9114   -0.3488   57.8390 H       1  ZINC000460163972    0.0700
     33 H33       -10.5261   -0.8660   54.2891 H       1  ZINC000460163972    0.1400
     34 H34        -9.0140   -0.0878   52.5098 H       1  ZINC000460163972    0.1600
     35 H35        -6.9303    2.5192   52.6048 H       1  ZINC000460163972    0.4100
     36 H36        -4.6582    0.5306   49.0984 H       1  ZINC000460163972    0.0800
     37 H37        -5.0092   -0.7998   50.2276 H       1  ZINC000460163972    0.0700
     38 H38        -6.3445    0.1208   49.4943 H       1  ZINC000460163972    0.0700
     39 H39        -7.3183    1.7583   49.3705 H       1  ZINC000460163972    0.1400
     40 H40        -8.0431    3.9792   48.5937 H       1  ZINC000460163972    0.1500
     41 H41        -4.2428    3.5709   51.7039 H       1  ZINC000460163972    0.1500
     42 H42        -6.9281    3.5373   55.4849 H       1  ZINC000460163972    0.1000
     43 H43        -6.1339    2.2672   56.4464 H       1  ZINC000460163972    0.1000
     44 H44        -5.7618    2.4356   54.7139 H       1  ZINC000460163972    0.0700
     45 H45        -6.9708    3.5359   58.0902 H       1  ZINC000460163972    0.4200
     46 H46        -8.9998    4.0429   56.0646 H       1  ZINC000460163972    0.1300
     47 H47       -10.6701    5.2408   57.5515 H       1  ZINC000460163972    0.1100
     48 H48        -9.7173    4.7192   59.0419 H       1  ZINC000460163972    0.1000
     49 H49        -7.6798    5.9542   58.1716 H       1  ZINC000460163972    0.1000
     50 H50        -8.6326    6.4759   56.6810 H       1  ZINC000460163972    0.1000
@<TRIPOS>BOND
     1     1     2    1
     2     1    30    1
     3     1    31    1
     4     1    32    1
     5     2    22   ar
     6     2     3   ar
     7     3     4   ar
     8     3    33    1
     9     4     5   ar
    10     4    34    1
    11     5     6    1
    12     5    20   ar
    13     6     7   am
    14     6    35    1
    15     7     8    2
    16     7     9    1
    17     9    10    1
    18     9    11    1
    19     9    12    1
    20    11    36    1
    21    11    37    1
    22    11    38    1
    23    12    19   ar
    24    12    13   ar
    25    13    14   ar
    26    13    39    1
    27    14    15   ar
    28    14    40    1
    29    15    16    1
    30    15    17   ar
    31    17    18    1
    32    17    19   ar
    33    19    41    1
    34    20    21    1
    35    20    22   ar
    36    21    42    1
    37    21    43    1
    38    21    44    1
    39    22    23    1
    40    23    24    2
    41    23    25    2
    42    23    26   am
    43    26    27    1
    44    26    45    1
    45    27    29    1
    46    27    28    1
    47    27    46    1
    48    28    29    1
    49    28    47    1
    50    28    48    1
    51    29    49    1
    52    29    50    1
@<TRIPOS>SUBSTRUCTURE
     1 ZINC000460163972        1 TEMP              0 ****  ****    0 ROOT


##########                                Name:    ZINC000504638019
##########                DOCK_Rotatable_Bonds:                   8
##########                         Heavy_Atoms:                  24
##########                    Molecular_Weight:             328.454
##########                DOCK_Rotatable_Bonds:                   8
##########                       Formal_Charge:        -1.49012e-08
##########                     HBond_Acceptors:                   4
##########                        HBond_Donors:                   1
##########                         Heavy_Atoms:                  24
##########                          Grid_Score:          -31.013697
##########                     Grid_vdw_energy:          -31.206196
##########                      Grid_es_energy:            0.192500
##########           Internal_energy_repulsive:           17.242271

@<TRIPOS>MOLECULE
ZINC000504638019
 52 53 1 0 0
SMALL
USER_CHARGES


@<TRIPOS>ATOM
      1 C1          0.6626    3.0310   48.7126 C.3     1  ZINC000504638019   -0.1200
      2 C2         -0.7681    2.8851   49.1635 C.ar    1  ZINC000504638019   -0.0900
      3 C3         -1.1445    3.3207   50.4202 C.ar    1  ZINC000504638019   -0.1200
      4 C4         -2.4567    3.1869   50.8337 C.ar    1  ZINC000504638019   -0.1100
      5 C5         -3.3926    2.6178   49.9903 C.ar    1  ZINC000504638019   -0.0900
      6 C6         -4.8230    2.4715   50.4413 C.3     1  ZINC000504638019   -0.0600
      7 H7         -4.9420    2.9252   51.4252 H       1  ZINC000504638019    0.0900
      8 C8         -5.7469    3.1709   49.4421 C.3     1  ZINC000504638019   -0.1500
      9 C9         -5.1845    0.9868   50.5171 C.3     1  ZINC000504638019    0.1300
     10 N10        -6.6241    0.8459   50.7496 N.am    1  ZINC000504638019   -0.7000
     11 C11        -7.0709    0.0870   51.7699 C.2     1  ZINC000504638019    0.5100
     12 O12        -6.2807   -0.4784   52.4968 O.2     1  ZINC000504638019   -0.5100
     13 C13        -8.5395   -0.0582   52.0059 C.2     1  ZINC000504638019    0.5100
     14 O14        -9.1203   -1.0522   51.6224 O.2     1  ZINC000504638019   -0.5200
     15 N15        -9.2188    0.9149   52.6447 N.am    1  ZINC000504638019   -0.5800
     16 C16       -10.6584    0.7725   52.8760 C.3     1  ZINC000504638019    0.0600
     17 C17        -8.5177    2.1150   53.1078 C.3     1  ZINC000504638019    0.1100
     18 C18        -7.8686    1.8348   54.4646 C.3     1  ZINC000504638019   -0.1000
     19 H19        -7.2245    0.9588   54.3887 H       1  ZINC000504638019    0.0800
     20 C20        -8.9551    1.5851   55.5128 C.3     1  ZINC000504638019   -0.0800
     21 C21        -8.3538    1.5722   56.8877 C.2     1  ZINC000504638019   -0.1500
     22 C22        -7.1861    2.0523   57.1730 C.2     1  ZINC000504638019   -0.1600
     23 C23        -6.2662    2.6799   56.1671 C.3     1  ZINC000504638019   -0.0900
     24 C24        -7.0384    3.0491   54.8997 C.3     1  ZINC000504638019   -0.1100
     25 C25        -3.0164    2.1835   48.7330 C.ar    1  ZINC000504638019   -0.1100
     26 C26        -1.7049    2.3209   48.3181 C.ar    1  ZINC000504638019   -0.1200
     27 H27         0.7923    3.9957   48.2221 H       1  ZINC000504638019    0.0700
     28 H28         1.3239    2.9712   49.5771 H       1  ZINC000504638019    0.0700
     29 H29         0.9063    2.2318   48.0128 H       1  ZINC000504638019    0.0700
     30 H30        -0.4134    3.7653   51.0791 H       1  ZINC000504638019    0.1200
     31 H31        -2.7507    3.5266   51.8158 H       1  ZINC000504638019    0.1200
     32 H32        -6.7815    3.0650   49.7683 H       1  ZINC000504638019    0.0600
     33 H33        -5.4894    4.2287   49.3881 H       1  ZINC000504638019    0.0600
     34 H34        -5.6279    2.7173   48.4582 H       1  ZINC000504638019    0.0600
     35 H35        -4.9186    0.4997   49.5790 H       1  ZINC000504638019    0.0800
     36 H36        -4.6368    0.5209   51.3364 H       1  ZINC000504638019    0.0800
     37 H37        -7.2556    1.2989   50.1692 H       1  ZINC000504638019    0.4100
     38 H38       -10.8250    0.1857   53.7794 H       1  ZINC000504638019    0.0600
     39 H39       -11.1065    1.7589   52.9958 H       1  ZINC000504638019    0.0700
     40 H40       -11.1149    0.2669   52.0251 H       1  ZINC000504638019    0.1100
     41 H41        -7.7476    2.3872   52.3859 H       1  ZINC000504638019    0.0900
     42 H42        -9.2284    2.9353   53.2074 H       1  ZINC000504638019    0.0900
     43 H43        -9.7033    2.3756   55.4531 H       1  ZINC000504638019    0.0800
     44 H44        -9.4314    0.6243   55.3177 H       1  ZINC000504638019    0.0600
     45 H45        -8.9314    1.1354   57.6889 H       1  ZINC000504638019    0.1000
     46 H46        -6.8532    1.9982   58.1991 H       1  ZINC000504638019    0.1000
     47 H47        -5.8218    3.5785   56.5951 H       1  ZINC000504638019    0.0700
     48 H48        -5.4754    1.9748   55.9113 H       1  ZINC000504638019    0.0700
     49 H49        -6.3380    3.3222   54.1104 H       1  ZINC000504638019    0.0700
     50 H50        -7.7054    3.8858   55.1076 H       1  ZINC000504638019    0.0700
     51 H51        -3.7476    1.7393   48.0739 H       1  ZINC000504638019    0.1200
     52 H52        -1.4111    1.9816   47.3358 H       1  ZINC000504638019    0.1200
@<TRIPOS>BOND
     1     1     2    1
     2     1    27    1
     3     1    28    1
     4     1    29    1
     5     2    26   ar
     6     2     3   ar
     7     3     4   ar
     8     3    30    1
     9     4     5   ar
    10     4    31    1
    11     5     6    1
    12     5    25   ar
    13     6     7    1
    14     6     8    1
    15     6     9    1
    16     8    32    1
    17     8    33    1
    18     8    34    1
    19     9    10    1
    20     9    35    1
    21     9    36    1
    22    10    11   am
    23    10    37    1
    24    11    12    2
    25    11    13    1
    26    13    14    2
    27    13    15   am
    28    15    16    1
    29    15    17    1
    30    16    38    1
    31    16    39    1
    32    16    40    1
    33    17    18    1
    34    17    41    1
    35    17    42    1
    36    18    19    1
    37    18    24    1
    38    18    20    1
    39    20    21    1
    40    20    43    1
    41    20    44    1
    42    21    22    2
    43    21    45    1
    44    22    23    1
    45    22    46    1
    46    23    24    1
    47    23    47    1
    48    23    48    1
    49    24    49    1
    50    24    50    1
    51    25    26   ar
    52    25    51    1
    53    26    52    1
@<TRIPOS>SUBSTRUCTURE
     1 ZINC000504638019        1 TEMP              0 ****  ****    0 ROOT


##########                                Name:    ZINC001500042809
##########                DOCK_Rotatable_Bonds:                   9
##########                         Heavy_Atoms:                  24
##########                    Molecular_Weight:              346.45
##########                DOCK_Rotatable_Bonds:                   9
##########                       Formal_Charge:           0.0200001
##########                     HBond_Acceptors:                   6
##########                        HBond_Donors:                   2
##########                         Heavy_Atoms:                  24
##########                          Grid_Score:          -31.007053
##########                     Grid_vdw_energy:          -31.024847
##########                      Grid_es_energy:            0.017794
##########           Internal_energy_repulsive:           10.163924

@<TRIPOS>MOLECULE
ZINC001500042809
 46 47 1 0 0
SMALL
USER_CHARGES


@<TRIPOS>ATOM
      1 C1          1.0452    2.7420   49.9379 C.3     1  ZINC001500042809    0.0200
      2 O2          0.0338    3.6818   49.5695 O.3     1  ZINC001500042809   -0.3100
      3 C3         -1.2543    3.2607   49.6422 C.ar    1  ZINC001500042809    0.1600
      4 C4         -1.9838    3.4598   50.8086 C.ar    1  ZINC001500042809   -0.1600
      5 C5         -3.2910    3.0336   50.8864 C.ar    1  ZINC001500042809   -0.0200
      6 C6         -3.8839    2.4007   49.7908 C.ar    1  ZINC001500042809   -0.1800
      7 C7         -5.2848    1.9425   49.8701 C.2     1  ZINC001500042809    0.5600
      8 O8         -6.1142    2.3860   49.0997 O.2     1  ZINC001500042809   -0.5300
      9 N9         -5.6445    1.0321   50.7966 N.am    1  ZINC001500042809   -0.7300
     10 C10        -7.0345    0.5758   50.8743 C.3     1  ZINC001500042809    0.1300
     11 C11        -7.3847    0.2527   52.3282 C.3     1  ZINC001500042809   -0.1200
     12 H12        -6.7730   -0.5811   52.6726 H       1  ZINC001500042809    0.0900
     13 C13        -7.1144    1.4788   53.2024 C.3     1  ZINC001500042809   -0.1500
     14 C14        -8.8640   -0.1261   52.4243 C.3     1  ZINC001500042809    0.1300
     15 N15        -9.1224   -0.7609   53.7191 N.am    1  ZINC001500042809   -0.7300
     16 C16        -9.9210   -0.1545   54.6195 C.2     1  ZINC001500042809    0.5900
     17 O17       -10.4287    0.9198   54.3564 O.2     1  ZINC001500042809   -0.5200
     18 C18       -10.1781   -0.7889   55.9157 C.2     1  ZINC001500042809   -0.2800
     19 C19       -10.0884   -0.1721   57.1318 C.2     1  ZINC001500042809   -0.0100
     20 C20        -9.7047    1.2755   57.3003 C.3     1  ZINC001500042809   -0.1100
     21 C21       -10.3837   -1.0034   58.1862 C.2     1  ZINC001500042809   -0.1500
     22 C22       -10.7042   -2.2577   57.8475 C.2     1  ZINC001500042809   -0.2200
     23 S23       -10.6585   -2.4633   56.1544 S.3     1  ZINC001500042809    0.1900
     24 C24        -3.1455    2.1978   48.6221 C.ar    1  ZINC001500042809   -0.0400
     25 C25        -1.8404    2.6312   48.5504 C.ar    1  ZINC001500042809   -0.2200
     26 H26         0.8957    2.4342   50.9728 H       1  ZINC001500042809    0.0600
     27 H27         0.9850    1.8697   49.2871 H       1  ZINC001500042809    0.0600
     28 H28         2.0265    3.2052   49.8348 H       1  ZINC001500042809    0.1000
     29 H29        -1.5248    3.9491   51.6549 H       1  ZINC001500042809    0.1400
     30 H30        -3.8569    3.1881   51.7932 H       1  ZINC001500042809    0.1400
     31 H31        -4.9830    0.6790   51.4120 H       1  ZINC001500042809    0.4000
     32 H32        -7.1580   -0.3185   50.2634 H       1  ZINC001500042809    0.0800
     33 H33        -7.6956    1.3608   50.5071 H       1  ZINC001500042809    0.0800
     34 H34        -6.0606    1.7488   53.1339 H       1  ZINC001500042809    0.0600
     35 H35        -7.7262    2.3127   52.8579 H       1  ZINC001500042809    0.0600
     36 H36        -7.3640    1.2487   54.2382 H       1  ZINC001500042809    0.0600
     37 H37        -9.4756    0.7712   52.3310 H       1  ZINC001500042809    0.0800
     38 H38        -9.1139   -0.8210   51.6226 H       1  ZINC001500042809    0.0800
     39 H39        -8.7187   -1.6179   53.9283 H       1  ZINC001500042809    0.4000
     40 H40       -10.6018    1.8942   57.2770 H       1  ZINC001500042809    0.0800
     41 H41        -9.1967    1.4078   58.2556 H       1  ZINC001500042809    0.0700
     42 H42        -9.0382    1.5713   56.4902 H       1  ZINC001500042809    0.0900
     43 H43       -10.3584   -0.6687   59.2126 H       1  ZINC001500042809    0.1500
     44 H44       -10.9614   -3.0350   58.5519 H       1  ZINC001500042809    0.1700
     45 H45        -3.5990    1.7051   47.7747 H       1  ZINC001500042809    0.1300
     46 H46        -1.2701    2.4777   47.6463 H       1  ZINC001500042809    0.1400
@<TRIPOS>BOND
     1     1     2    1
     2     1    26    1
     3     1    27    1
     4     1    28    1
     5     2     3    1
     6     3    25   ar
     7     3     4   ar
     8     4     5   ar
     9     4    29    1
    10     5     6   ar
    11     5    30    1
    12     6     7    1
    13     6    24   ar
    14     7     8    2
    15     7     9   am
    16     9    10    1
    17     9    31    1
    18    10    11    1
    19    10    32    1
    20    10    33    1
    21    11    12    1
    22    11    13    1
    23    11    14    1
    24    13    34    1
    25    13    35    1
    26    13    36    1
    27    14    15    1
    28    14    37    1
    29    14    38    1
    30    15    16   am
    31    15    39    1
    32    16    17    2
    33    16    18    1
    34    18    23    1
    35    18    19    2
    36    19    20    1
    37    19    21    1
    38    20    40    1
    39    20    41    1
    40    20    42    1
    41    21    22    2
    42    21    43    1
    43    22    23    1
    44    22    44    1
    45    24    25   ar
    46    24    45    1
    47    25    46    1
@<TRIPOS>SUBSTRUCTURE
     1 ZINC001500042809        1 TEMP              0 ****  ****    0 ROOT


##########                                Name:    ZINC000425987417
##########                DOCK_Rotatable_Bonds:                   9
##########                         Heavy_Atoms:                  25
##########                    Molecular_Weight:             357.419
##########                DOCK_Rotatable_Bonds:                   9
##########                       Formal_Charge:         -0.00999992
##########                     HBond_Acceptors:                   7
##########                        HBond_Donors:                   1
##########                         Heavy_Atoms:                  25
##########                          Grid_Score:          -31.002661
##########                     Grid_vdw_energy:          -29.691486
##########                      Grid_es_energy:           -1.311174
##########           Internal_energy_repulsive:           11.257287

@<TRIPOS>MOLECULE
ZINC000425987417
 51 52 1 0 0
SMALL
USER_CHARGES


@<TRIPOS>ATOM
      1 C1         -9.7966   -0.6465   53.9914 C.3     1  ZINC000425987417   -0.1500
      2 C2         -9.4054    0.7839   53.6143 C.3     1  ZINC000425987417    0.0400
      3 N3         -7.9547    0.8528   53.3938 N.3     1  ZINC000425987417   -0.5300
      4 C4         -7.6274    0.6487   51.9764 C.3     1  ZINC000425987417    0.0400
      5 C5         -6.2872   -0.0805   51.8623 C.3     1  ZINC000425987417    0.1400
      6 N6         -5.2164    0.8963   51.6490 N.am    1  ZINC000425987417   -0.7500
      7 C7         -4.9507    1.3443   50.4059 C.2     1  ZINC000425987417    0.7200
      8 O8         -5.5998    0.9378   49.4616 O.2     1  ZINC000425987417   -0.5800
      9 N9         -3.9656    2.2429   50.2097 N.am    1  ZINC000425987417   -0.6200
     10 C10        -3.6504    2.7519   48.8646 C.3     1  ZINC000425987417    0.1300
     11 C11        -2.2347    2.2991   48.5110 C.3     1  ZINC000425987417   -0.1000
     12 C12        -1.2847    2.5731   49.6469 C.ar    1  ZINC000425987417   -0.0600
     13 C13         0.0722    2.6260   49.3535 C.ar    1  ZINC000425987417   -0.1200
     14 C14         0.9969    2.8635   50.3494 C.ar    1  ZINC000425987417   -0.1100
     15 C15         0.5723    3.0492   51.6517 C.ar    1  ZINC000425987417   -0.1200
     16 C16        -0.7752    3.0005   51.9454 C.ar    1  ZINC000425987417   -0.1100
     17 C17        -1.7068    2.7674   50.9434 C.ar    1  ZINC000425987417   -0.0900
     18 C18        -3.1687    2.7575   51.3285 C.3     1  ZINC000425987417    0.1800
     19 H19        -3.3101    2.1172   52.1992 H       1  ZINC000425987417    0.0900
     20 C20        -3.6160    4.1814   51.6655 C.3     1  ZINC000425987417   -0.1600
     21 C21        -7.4078    2.1256   53.8825 C.3     1  ZINC000425987417    0.0500
     22 C22        -7.1231    2.0163   55.3818 C.3     1  ZINC000425987417   -0.1600
     23 C23        -6.8442    3.4089   55.9508 C.3     1  ZINC000425987417    0.4500
     24 F24        -6.5851    3.3090   57.3220 F       1  ZINC000425987417   -0.1800
     25 F25        -5.7334    3.9626   55.3055 F       1  ZINC000425987417   -0.1800
     26 F26        -7.9593    4.2284   55.7455 F       1  ZINC000425987417   -0.1900
     27 H27        -9.3118   -0.9207   54.9284 H       1  ZINC000425987417    0.0500
     28 H28       -10.8783   -0.7079   54.1104 H       1  ZINC000425987417    0.0600
     29 H29        -9.4784   -1.3297   53.2041 H       1  ZINC000425987417    0.0700
     30 H30        -9.9258    1.0743   52.7018 H       1  ZINC000425987417    0.0800
     31 H31        -9.6827    1.4613   54.4221 H       1  ZINC000425987417    0.0400
     32 H32        -8.4078    0.0505   51.5059 H       1  ZINC000425987417    0.0500
     33 H33        -7.5592    1.6149   51.4765 H       1  ZINC000425987417    0.0800
     34 H34        -6.0958   -0.6347   52.7811 H       1  ZINC000425987417    0.0800
     35 H35        -6.3206   -0.7725   51.0208 H       1  ZINC000425987417    0.0700
     36 H36        -4.6987    1.2206   52.4024 H       1  ZINC000425987417    0.3900
     37 H37        -4.3586    2.3468   48.1418 H       1  ZINC000425987417    0.1000
     38 H38        -3.7011    3.8407   48.8611 H       1  ZINC000425987417    0.0700
     39 H39        -2.2425    1.2298   48.3000 H       1  ZINC000425987417    0.0800
     40 H40        -1.8976    2.8361   47.6243 H       1  ZINC000425987417    0.0900
     41 H41         0.4062    2.4796   48.3370 H       1  ZINC000425987417    0.1200
     42 H42         2.0497    2.9038   50.1122 H       1  ZINC000425987417    0.1200
     43 H43         1.2921    3.2313   52.4360 H       1  ZINC000425987417    0.1200
     44 H44        -1.1074    3.1448   52.9629 H       1  ZINC000425987417    0.1200
     45 H45        -3.4734    4.8225   50.7956 H       1  ZINC000425987417    0.0700
     46 H46        -4.6700    4.1749   51.9433 H       1  ZINC000425987417    0.0600
     47 H47        -3.0232    4.5611   52.4977 H       1  ZINC000425987417    0.0700
     48 H48        -6.4823    2.3508   53.3524 H       1  ZINC000425987417    0.0500
     49 H49        -8.1301    2.9227   53.7069 H       1  ZINC000425987417    0.0900
     50 H50        -7.9881    1.5846   55.8853 H       1  ZINC000425987417    0.1200
     51 H51        -6.2541    1.3780   55.5410 H       1  ZINC000425987417    0.1100
@<TRIPOS>BOND
     1     1     2    1
     2     1    27    1
     3     1    28    1
     4     1    29    1
     5     2     3    1
     6     2    30    1
     7     2    31    1
     8     3     4    1
     9     3    21    1
    10     4     5    1
    11     4    32    1
    12     4    33    1
    13     5     6    1
    14     5    34    1
    15     5    35    1
    16     6     7   am
    17     6    36    1
    18     7     8    2
    19     7     9   am
    20     9    18    1
    21     9    10    1
    22    10    11    1
    23    10    37    1
    24    10    38    1
    25    11    12    1
    26    11    39    1
    27    11    40    1
    28    12    17   ar
    29    12    13   ar
    30    13    14   ar
    31    13    41    1
    32    14    15   ar
    33    14    42    1
    34    15    16   ar
    35    15    43    1
    36    16    17   ar
    37    16    44    1
    38    17    18    1
    39    18    19    1
    40    18    20    1
    41    20    45    1
    42    20    46    1
    43    20    47    1
    44    21    22    1
    45    21    48    1
    46    21    49    1
    47    22    23    1
    48    22    50    1
    49    22    51    1
    50    23    24    1
    51    23    25    1
    52    23    26    1
@<TRIPOS>SUBSTRUCTURE
     1 ZINC000425987417        1 TEMP              0 ****  ****    0 ROOT


##########                                Name:    ZINC001456607258
##########                DOCK_Rotatable_Bonds:                   9
##########                         Heavy_Atoms:                  25
##########                    Molecular_Weight:             339.437
##########                DOCK_Rotatable_Bonds:                   9
##########                       Formal_Charge:          -0.0200009
##########                     HBond_Acceptors:                   5
##########                        HBond_Donors:                   2
##########                         Heavy_Atoms:                  25
##########                          Grid_Score:          -31.000809
##########                     Grid_vdw_energy:          -29.816553
##########                      Grid_es_energy:           -1.184255
##########           Internal_energy_repulsive:            9.636253

@<TRIPOS>MOLECULE
ZINC001456607258
 50 52 1 0 0
SMALL
USER_CHARGES


@<TRIPOS>ATOM
      1 C1         -7.0811    4.3765   49.9500 C.3     1  ZINC001456607258   -0.1600
      2 C2         -6.4050    3.0368   49.6513 C.3     1  ZINC001456607258   -0.1100
      3 C3         -6.1061    2.3123   50.9654 C.3     1  ZINC001456607258   -0.1000
      4 H4         -5.9359    3.0453   51.7538 H       1  ZINC001456607258    0.0900
      5 C5         -4.8570    1.4449   50.7969 C.3     1  ZINC001456607258   -0.0700
      6 C6         -3.6377    2.3280   50.7297 C.ar    1  ZINC001456607258   -0.0800
      7 C7         -3.2307    3.0308   51.8483 C.ar    1  ZINC001456607258   -0.1200
      8 C8         -2.1123    3.8409   51.7865 C.ar    1  ZINC001456607258   -0.1200
      9 C9         -1.4007    3.9479   50.6062 C.ar    1  ZINC001456607258   -0.1200
     10 C10        -1.8071    3.2444   49.4879 C.ar    1  ZINC001456607258   -0.1200
     11 C11        -2.9230    2.4309   49.5509 C.ar    1  ZINC001456607258   -0.1200
     12 C12        -7.2776    1.4394   51.3354 C.2     1  ZINC001456607258    0.5200
     13 O13        -7.4316    0.3676   50.7892 O.2     1  ZINC001456607258   -0.5300
     14 N14        -8.1541    1.8498   52.2734 N.am    1  ZINC001456607258   -0.7300
     15 C15        -9.2928    1.0013   52.6331 C.3     1  ZINC001456607258    0.1300
     16 C16        -8.9253    0.1406   53.8434 C.3     1  ZINC001456607258   -0.1400
     17 C17        -8.8223    0.9330   55.1592 C.3     1  ZINC001456607258    0.1100
     18 N18        -9.5310   -0.2021   55.7815 N.am    1  ZINC001456607258   -0.6500
     19 C19        -9.6030   -0.6996   57.0320 C.2     1  ZINC001456607258    0.6100
     20 O20       -10.2880   -1.6788   57.2585 O.2     1  ZINC001456607258   -0.5400
     21 C21        -8.8521   -0.0576   58.1241 C.2     1  ZINC001456607258   -0.2300
     22 C22        -8.6433    1.2825   58.3012 C.2     1  ZINC001456607258    0.0400
     23 N23        -7.9101    1.4545   59.4174 N.pl3   1  ZINC001456607258   -0.5500
     24 C24        -7.6265    0.2479   59.9881 C.2     1  ZINC001456607258   -0.0200
     25 C25        -8.1827   -0.7256   59.2454 C.2     1  ZINC001456607258   -0.1400
     26 C26       -10.1289   -0.5738   54.4845 C.3     1  ZINC001456607258    0.1100
     27 H27        -7.2112    4.9327   49.0215 H       1  ZINC001456607258    0.0600
     28 H28        -8.0549    4.1983   50.4062 H       1  ZINC001456607258    0.0600
     29 H29        -6.4590    4.9528   50.6346 H       1  ZINC001456607258    0.0600
     30 H30        -7.0678    2.4234   49.0409 H       1  ZINC001456607258    0.0800
     31 H31        -5.4736    3.2119   49.1129 H       1  ZINC001456607258    0.0700
     32 H32        -4.7683    0.7670   51.6459 H       1  ZINC001456607258    0.0800
     33 H33        -4.9378    0.8664   49.8767 H       1  ZINC001456607258    0.0900
     34 H34        -3.7867    2.9473   52.7704 H       1  ZINC001456607258    0.1200
     35 H35        -1.7947    4.3905   52.6603 H       1  ZINC001456607258    0.1200
     36 H36        -0.5273    4.5813   50.5578 H       1  ZINC001456607258    0.1200
     37 H37        -1.2513    3.3283   48.5657 H       1  ZINC001456607258    0.1200
     38 H38        -3.2406    1.8813   48.6771 H       1  ZINC001456607258    0.1200
     39 H39        -8.0308    2.7070   52.7103 H       1  ZINC001456607258    0.4000
     40 H40       -10.1496    1.6284   52.8800 H       1  ZINC001456607258    0.0700
     41 H41        -9.5454    0.3561   51.7916 H       1  ZINC001456607258    0.0800
     42 H42        -8.0748   -0.5149   53.6561 H       1  ZINC001456607258    0.1100
     43 H43        -7.8003    1.0616   55.5158 H       1  ZINC001456607258    0.0800
     44 H44        -9.3940    1.8611   55.1591 H       1  ZINC001456607258    0.0900
     45 H45        -9.0047    2.0690   57.6552 H       1  ZINC001456607258    0.1700
     46 H46        -7.6240    2.3134   59.7658 H       1  ZINC001456607258    0.4200
     47 H47        -7.0536    0.0994   60.8914 H       1  ZINC001456607258    0.1700
     48 H48        -8.1386   -1.7882   59.4330 H       1  ZINC001456607258    0.1500
     49 H49       -11.0846   -0.0883   54.2861 H       1  ZINC001456607258    0.0900
     50 H50       -10.1502   -1.6482   54.3023 H       1  ZINC001456607258    0.0900
@<TRIPOS>BOND
     1     1     2    1
     2     1    27    1
     3     1    28    1
     4     1    29    1
     5     2     3    1
     6     2    30    1
     7     2    31    1
     8     3     4    1
     9     3     5    1
    10     3    12    1
    11     5     6    1
    12     5    32    1
    13     5    33    1
    14     6    11   ar
    15     6     7   ar
    16     7     8   ar
    17     7    34    1
    18     8     9   ar
    19     8    35    1
    20     9    10   ar
    21     9    36    1
    22    10    11   ar
    23    10    37    1
    24    11    38    1
    25    12    13    2
    26    12    14   am
    27    14    15    1
    28    14    39    1
    29    15    16    1
    30    15    40    1
    31    15    41    1
    32    16    26    1
    33    16    17    1
    34    16    42    1
    35    17    18    1
    36    17    43    1
    37    17    44    1
    38    18    19   am
    39    18    26    1
    40    19    20    2
    41    19    21    1
    42    21    25    1
    43    21    22    2
    44    22    23    1
    45    22    45    1
    46    23    24    1
    47    23    46    1
    48    24    25    2
    49    24    47    1
    50    25    48    1
    51    26    49    1
    52    26    50    1
@<TRIPOS>SUBSTRUCTURE
     1 ZINC001456607258        1 TEMP              0 ****  ****    0 ROOT


##########                                Name:    ZINC000859608860
##########                DOCK_Rotatable_Bonds:                   8
##########                         Heavy_Atoms:                  24
##########                    Molecular_Weight:             394.268
##########                DOCK_Rotatable_Bonds:                   8
##########                       Formal_Charge:          -0.0200003
##########                     HBond_Acceptors:                   6
##########                        HBond_Donors:                   1
##########                         Heavy_Atoms:                  24
##########                          Grid_Score:          -30.998386
##########                     Grid_vdw_energy:          -30.593695
##########                      Grid_es_energy:           -0.404691
##########           Internal_energy_repulsive:            8.043603

@<TRIPOS>MOLECULE
ZINC000859608860
 44 45 1 0 0
SMALL
USER_CHARGES


@<TRIPOS>ATOM
      1 C1          3.5509    0.5613   45.4549 C.3     1  ZINC000859608860   -0.1400
      2 C2          2.8236    1.1084   46.6849 C.3     1  ZINC000859608860   -0.0800
      3 C3          2.7537    0.0229   47.7608 C.3     1  ZINC000859608860   -0.1400
      4 C4          3.5838    2.3189   47.2302 C.3     1  ZINC000859608860   -0.1400
      5 C5          1.4060    1.5304   46.2933 C.3     1  ZINC000859608860    0.1300
      6 N6          0.7259    2.0985   47.4599 N.am    1  ZINC000859608860   -0.7300
      7 C7         -0.6202    2.0901   47.5255 C.2     1  ZINC000859608860    0.5100
      8 O8         -1.2686    1.6136   46.6181 O.2     1  ZINC000859608860   -0.5100
      9 C9         -1.3198    2.6728   48.7263 C.3     1  ZINC000859608860    0.0500
     10 O10        -2.5689    1.9667   48.9488 O.3     1  ZINC000859608860   -0.3100
     11 C11        -3.3608    2.4214   49.9403 C.2     1  ZINC000859608860    0.5600
     12 O12        -3.1089    3.4799   50.4822 O.2     1  ZINC000859608860   -0.5100
     13 C13        -4.5301    1.6364   50.3667 C.2     1  ZINC000859608860   -0.0400
     14 C14        -5.3003    1.8710   51.4693 C.2     1  ZINC000859608860    0.0500
     15 N15        -6.2671    0.9135   51.4836 N.pl3   1  ZINC000859608860   -0.4100
     16 C16        -7.2802    0.7734   52.4430 C.ar    1  ZINC000859608860    0.1400
     17 C17        -8.4131    0.0249   52.1537 C.ar    1  ZINC000859608860   -0.1200
     18 C18        -9.4093   -0.1120   53.1005 C.ar    1  ZINC000859608860   -0.0600
     19 C19        -9.2790    0.4961   54.3364 C.ar    1  ZINC000859608860   -0.1000
     20 Br20      -10.6449    0.3066   55.6302 Br      1  ZINC000859608860   -0.0300
     21 C21        -8.1508    1.2422   54.6273 C.ar    1  ZINC000859608860   -0.0600
     22 C22        -7.1495    1.3782   53.6858 C.ar    1  ZINC000859608860   -0.1200
     23 C23        -6.0725    0.1163   50.3975 C.2     1  ZINC000859608860    0.2000
     24 N24        -5.0423    0.5510   49.7315 N.2     1  ZINC000859608860   -0.4300
     25 H25         3.0093   -0.3012   45.0663 H       1  ZINC000859608860    0.0500
     26 H26         3.6007    1.3346   44.6884 H       1  ZINC000859608860    0.0600
     27 H27         4.5608    0.2607   45.7338 H       1  ZINC000859608860    0.0600
     28 H28         3.7637   -0.2777   48.0397 H       1  ZINC000859608860    0.0600
     29 H29         2.2357    0.4127   48.6371 H       1  ZINC000859608860    0.0600
     30 H30         2.2122   -0.8396   47.3722 H       1  ZINC000859608860    0.0500
     31 H31         3.6335    3.0923   46.4637 H       1  ZINC000859608860    0.0600
     32 H32         3.0657    2.7087   48.1064 H       1  ZINC000859608860    0.0600
     33 H33         4.5937    2.0183   47.5092 H       1  ZINC000859608860    0.0600
     34 H34         1.4551    2.2780   45.5016 H       1  ZINC000859608860    0.0700
     35 H35         0.8531    0.6608   45.9382 H       1  ZINC000859608860    0.0700
     36 H36         1.2444    2.4807   48.1851 H       1  ZINC000859608860    0.4000
     37 H37        -0.6822    2.5688   49.6043 H       1  ZINC000859608860    0.1000
     38 H38        -1.5257    3.7286   48.5500 H       1  ZINC000859608860    0.1000
     39 H39        -5.1677    2.6634   52.1911 H       1  ZINC000859608860    0.2000
     40 H40        -8.5154   -0.4497   51.1889 H       1  ZINC000859608860    0.1400
     41 H41       -10.2909   -0.6939   52.8756 H       1  ZINC000859608860    0.1500
     42 H42        -8.0514    1.7160   55.5928 H       1  ZINC000859608860    0.1500
     43 H43        -6.2691    1.9608   53.9134 H       1  ZINC000859608860    0.1500
     44 H44        -6.6778   -0.7370   50.1295 H       1  ZINC000859608860    0.2200
@<TRIPOS>BOND
     1     1     2    1
     2     1    25    1
     3     1    26    1
     4     1    27    1
     5     2     3    1
     6     2     4    1
     7     2     5    1
     8     3    28    1
     9     3    29    1
    10     3    30    1
    11     4    31    1
    12     4    32    1
    13     4    33    1
    14     5     6    1
    15     5    34    1
    16     5    35    1
    17     6     7   am
    18     6    36    1
    19     7     8    2
    20     7     9    1
    21     9    10    1
    22     9    37    1
    23     9    38    1
    24    10    11    1
    25    11    12    2
    26    11    13    1
    27    13    24    1
    28    13    14    2
    29    14    15    1
    30    14    39    1
    31    15    16    1
    32    15    23    1
    33    16    22   ar
    34    16    17   ar
    35    17    18   ar
    36    17    40    1
    37    18    19   ar
    38    18    41    1
    39    19    20    1
    40    19    21   ar
    41    21    22   ar
    42    21    42    1
    43    22    43    1
    44    23    24    2
    45    23    44    1
@<TRIPOS>SUBSTRUCTURE
     1 ZINC000859608860        1 TEMP              0 ****  ****    0 ROOT


##########                                Name:    ZINC000979274057
##########                DOCK_Rotatable_Bonds:                   6
##########                         Heavy_Atoms:                  24
##########                    Molecular_Weight:              330.39
##########                DOCK_Rotatable_Bonds:                   6
##########                       Formal_Charge:          0.00999946
##########                     HBond_Acceptors:                   8
##########                        HBond_Donors:                   1
##########                         Heavy_Atoms:                  24
##########                          Grid_Score:          -30.943916
##########                     Grid_vdw_energy:          -31.311523
##########                      Grid_es_energy:            0.367607
##########           Internal_energy_repulsive:            9.039429

@<TRIPOS>MOLECULE
ZINC000979274057
 46 48 1 0 0
SMALL
USER_CHARGES


@<TRIPOS>ATOM
      1 C1         -6.8975    0.7648   51.3834 C.3     1  ZINC000979274057   -0.1400
      2 C2         -6.3252    2.1374   51.0237 C.3     1  ZINC000979274057    0.1000
      3 H3         -6.3464    2.7815   51.9028 H       1  ZINC000979274057    0.0600
      4 N4         -7.1334    2.7403   49.9554 N.3     1  ZINC000979274057   -0.6700
      5 C5         -7.1384    4.2054   50.0622 C.3     1  ZINC000979274057    0.1300
      6 C6         -8.0462    4.7830   49.0070 C.ar    1  ZINC000979274057    0.3200
      7 N7         -7.7106    5.9154   48.4221 N.ar    1  ZINC000979274057   -0.5200
      8 C8         -8.4828    6.4525   47.4913 C.ar    1  ZINC000979274057    0.1500
      9 C9         -9.6568    5.8077   47.1347 C.ar    1  ZINC000979274057   -0.2300
     10 C10        -9.9757    4.6191   47.7720 C.ar    1  ZINC000979274057    0.1500
     11 N11        -9.1517    4.1394   48.6898 N.ar    1  ZINC000979274057   -0.5000
     12 C12        -4.8815    1.9779   50.5429 C.3     1  ZINC000979274057    0.0800
     13 H13        -4.5187    0.9837   50.8036 H       1  ZINC000979274057    0.0700
     14 C14        -3.9988    3.0371   51.2130 C.3     1  ZINC000979274057    0.0800
     15 N15        -2.6632    2.9849   50.5976 N.am    1  ZINC000979274057   -0.6000
     16 C16        -1.5523    2.9040   51.3563 C.2     1  ZINC000979274057    0.6100
     17 O17        -1.6449    2.8733   52.5687 O.2     1  ZINC000979274057   -0.5400
     18 C18        -0.2258    2.8526   50.7175 C.2     1  ZINC000979274057   -0.0600
     19 C19         0.6054    1.7720   50.6704 C.2     1  ZINC000979274057    0.0400
     20 N20         1.7121    2.1567   49.9923 N.pl3   1  ZINC000979274057   -0.4600
     21 C21         2.8781    1.3207   49.6963 C.3     1  ZINC000979274057    0.0700
     22 C22         1.5473    3.4570   49.6351 C.2     1  ZINC000979274057    0.1900
     23 N23         0.3896    3.8706   50.0631 N.2     1  ZINC000979274057   -0.4600
     24 C24        -2.5762    3.0233   49.1291 C.3     1  ZINC000979274057    0.0500
     25 C25        -3.5284    1.9648   48.5606 C.3     1  ZINC000979274057    0.0500
     26 O26        -4.8290    2.1488   49.1245 O.3     1  ZINC000979274057   -0.3600
     27 H27        -7.9261    0.8785   51.7259 H       1  ZINC000979274057    0.0600
     28 H28        -6.8765    0.1207   50.5043 H       1  ZINC000979274057    0.0700
     29 H29        -6.2979    0.3174   52.1761 H       1  ZINC000979274057    0.0600
     30 H30        -6.8093    2.4452   49.0465 H       1  ZINC000979274057    0.3500
     31 H31        -7.4975    4.4965   51.0494 H       1  ZINC000979274057    0.1000
     32 H32        -6.1264    4.5838   49.9177 H       1  ZINC000979274057    0.0600
     33 H33        -8.2022    7.3809   47.0162 H       1  ZINC000979274057    0.1700
     34 H34       -10.3074    6.2219   46.3787 H       1  ZINC000979274057    0.1500
     35 H35       -10.8824    4.0892   47.5202 H       1  ZINC000979274057    0.1700
     36 H36        -4.4336    4.0254   51.0635 H       1  ZINC000979274057    0.0700
     37 H37        -3.9198    2.8277   52.2798 H       1  ZINC000979274057    0.1000
     38 H38         0.4168    0.7964   51.0934 H       1  ZINC000979274057    0.1900
     39 H39         2.7306    0.8161   48.7415 H       1  ZINC000979274057    0.0800
     40 H40         3.7694    1.9459   49.6430 H       1  ZINC000979274057    0.0900
     41 H41         3.0021    0.5779   50.4843 H       1  ZINC000979274057    0.0900
     42 H42         2.2600    4.0505   49.0817 H       1  ZINC000979274057    0.2100
     43 H43        -2.8678    4.0103   48.7697 H       1  ZINC000979274057    0.0700
     44 H44        -1.5554    2.8049   48.8159 H       1  ZINC000979274057    0.1500
     45 H45        -3.5833    2.0691   47.4769 H       1  ZINC000979274057    0.1100
     46 H46        -3.1600    0.9706   48.8133 H       1  ZINC000979274057    0.0500
@<TRIPOS>BOND
     1     1     2    1
     2     1    27    1
     3     1    28    1
     4     1    29    1
     5     2     3    1
     6     2     4    1
     7     2    12    1
     8     4     5    1
     9     4    30    1
    10     5     6    1
    11     5    31    1
    12     5    32    1
    13     6    11   ar
    14     6     7   ar
    15     7     8   ar
    16     8     9   ar
    17     8    33    1
    18     9    10   ar
    19     9    34    1
    20    10    11   ar
    21    10    35    1
    22    12    13    1
    23    12    26    1
    24    12    14    1
    25    14    15    1
    26    14    36    1
    27    14    37    1
    28    15    16   am
    29    15    24    1
    30    16    17    2
    31    16    18    1
    32    18    23    1
    33    18    19    2
    34    19    20    1
    35    19    38    1
    36    20    21    1
    37    20    22    1
    38    21    39    1
    39    21    40    1
    40    21    41    1
    41    22    23    2
    42    22    42    1
    43    24    25    1
    44    24    43    1
    45    24    44    1
    46    25    26    1
    47    25    45    1
    48    25    46    1
@<TRIPOS>SUBSTRUCTURE
     1 ZINC000979274057        1 TEMP              0 ****  ****    0 ROOT


##########                                Name:    ZINC000437192871
##########                DOCK_Rotatable_Bonds:                   9
##########                         Heavy_Atoms:                  28
##########                    Molecular_Weight:             423.298
##########                DOCK_Rotatable_Bonds:                   9
##########                       Formal_Charge:         -8.9407e-08
##########                     HBond_Acceptors:                   9
##########                        HBond_Donors:                   1
##########                         Heavy_Atoms:                  28
##########                          Grid_Score:          -30.932165
##########                     Grid_vdw_energy:          -29.622438
##########                      Grid_es_energy:           -1.309727
##########           Internal_energy_repulsive:           16.195669

@<TRIPOS>MOLECULE
ZINC000437192871
 48 50 1 0 0
SMALL
USER_CHARGES


@<TRIPOS>ATOM
      1 C1        -10.2302   -0.2917   55.5460 C.3     1  ZINC000437192871   -0.1700
      2 C2        -10.2730   -0.1857   54.0202 C.3     1  ZINC000437192871    0.1300
      3 N3         -9.3050    0.8190   53.5731 N.pl3   1  ZINC000437192871   -0.3600
      4 C4         -8.1019    0.5691   53.0153 C.2     1  ZINC000437192871    0.0700
      5 C5         -7.5170    1.7592   52.7460 C.2     1  ZINC000437192871   -0.2700
      6 C6         -6.1620    1.9591   52.1176 C.3     1  ZINC000437192871    0.1900
      7 N7         -6.2695    1.8026   50.6649 N.am    1  ZINC000437192871   -0.6000
      8 C8         -6.5190    0.4797   50.0872 C.3     1  ZINC000437192871    0.1100
      9 C9         -5.1928   -0.2674   49.9321 C.3     1  ZINC000437192871    0.0600
     10 O10        -4.2959    0.5135   49.1399 O.3     1  ZINC000437192871   -0.5600
     11 C11        -6.1390    2.8757   49.8600 C.2     1  ZINC000437192871    0.6000
     12 O12        -6.2281    2.7459   48.6541 O.2     1  ZINC000437192871   -0.5000
     13 C13        -5.8883    4.2057   50.4409 C.2     1  ZINC000437192871   -0.2200
     14 C14        -6.7798    5.2250   50.6614 C.2     1  ZINC000437192871    0.0100
     15 C15        -8.2546    5.2150   50.3514 C.3     1  ZINC000437192871   -0.0800
     16 O16        -6.0853    6.2272   51.2049 O.3     1  ZINC000437192871    0.1100
     17 N17        -4.9140    5.9758   51.3485 N.2     1  ZINC000437192871   -0.3200
     18 C18        -4.6152    4.7698   50.9366 C.2     1  ZINC000437192871    0.0800
     19 C19        -3.2852    4.1146   50.9548 C.ar    1  ZINC000437192871   -0.0200
     20 C20        -2.7159    3.6547   49.7688 C.ar    1  ZINC000437192871   -0.0700
     21 C21        -1.4777    3.0461   49.7910 C.ar    1  ZINC000437192871   -0.1000
     22 C22        -0.8003    2.8915   50.9886 C.ar    1  ZINC000437192871   -0.0100
     23 Cl23        0.7574    2.1253   51.0084 Cl      1  ZINC000437192871   -0.0500
     24 C24        -1.3604    3.3461   52.1701 C.ar    1  ZINC000437192871   -0.1100
     25 C25        -2.5966    3.9614   52.1587 C.ar    1  ZINC000437192871    0.0000
     26 Cl26       -3.2981    4.5318   53.6406 Cl      1  ZINC000437192871   -0.0300
     27 C27        -8.3926    2.7711   53.1534 C.2     1  ZINC000437192871    0.0600
     28 N28        -9.4673    2.2085   53.6438 N.2     1  ZINC000437192871   -0.2900
     29 H29       -10.9504   -1.0392   55.8786 H       1  ZINC000437192871    0.0800
     30 H30        -9.2293   -0.5858   55.8618 H       1  ZINC000437192871    0.0600
     31 H31       -10.4804    0.6744   55.9845 H       1  ZINC000437192871    0.0700
     32 H32       -10.0229   -1.1518   53.5817 H       1  ZINC000437192871    0.1000
     33 H33       -11.2739    0.1084   53.7044 H       1  ZINC000437192871    0.0900
     34 H34        -7.6812   -0.4060   52.8191 H       1  ZINC000437192871    0.1600
     35 H35        -5.7982    2.9603   52.3492 H       1  ZINC000437192871    0.0900
     36 H36        -5.4657    1.2192   52.5122 H       1  ZINC000437192871    0.0800
     37 H37        -7.1795   -0.0854   50.7449 H       1  ZINC000437192871    0.1000
     38 H38        -6.9889    0.5925   49.1102 H       1  ZINC000437192871    0.1000
     39 H39        -4.7547   -0.4378   50.9156 H       1  ZINC000437192871    0.0600
     40 H40        -5.3703   -1.2251   49.4426 H       1  ZINC000437192871    0.0500
     41 H41        -4.0924    1.3809   49.5158 H       1  ZINC000437192871    0.3800
     42 H42        -8.8113    4.9266   51.2431 H       1  ZINC000437192871    0.1000
     43 H43        -8.5660    6.2104   50.0346 H       1  ZINC000437192871    0.0900
     44 H44        -8.4531    4.5007   49.5524 H       1  ZINC000437192871    0.0900
     45 H45        -3.2431    3.7742   48.8339 H       1  ZINC000437192871    0.1600
     46 H46        -1.0362    2.6892   48.8722 H       1  ZINC000437192871    0.1500
     47 H47        -0.8279    3.2232   53.1016 H       1  ZINC000437192871    0.1500
     48 H48        -8.2144    3.8331   53.0724 H       1  ZINC000437192871    0.1800
@<TRIPOS>BOND
     1     1     2    1
     2     1    29    1
     3     1    30    1
     4     1    31    1
     5     2     3    1
     6     2    32    1
     7     2    33    1
     8     3    28    1
     9     3     4    1
    10     4     5    2
    11     4    34    1
    12     5     6    1
    13     5    27    1
    14     6     7    1
    15     6    35    1
    16     6    36    1
    17     7     8    1
    18     7    11   am
    19     8     9    1
    20     8    37    1
    21     8    38    1
    22     9    10    1
    23     9    39    1
    24     9    40    1
    25    10    41    1
    26    11    12    2
    27    11    13    1
    28    13    18    1
    29    13    14    2
    30    14    15    1
    31    14    16    1
    32    15    42    1
    33    15    43    1
    34    15    44    1
    35    16    17    1
    36    17    18    2
    37    18    19    1
    38    19    25   ar
    39    19    20   ar
    40    20    21   ar
    41    20    45    1
    42    21    22   ar
    43    21    46    1
    44    22    23    1
    45    22    24   ar
    46    24    25   ar
    47    24    47    1
    48    25    26    1
    49    27    28    2
    50    27    48    1
@<TRIPOS>SUBSTRUCTURE
     1 ZINC000437192871        1 TEMP              0 ****  ****    0 ROOT


##########                                Name:    ZINC000163855860
##########                DOCK_Rotatable_Bonds:                   6
##########                         Heavy_Atoms:                  28
##########                    Molecular_Weight:             398.483
##########                DOCK_Rotatable_Bonds:                   6
##########                       Formal_Charge:          -0.0100004
##########                     HBond_Acceptors:                   7
##########                        HBond_Donors:                   1
##########                         Heavy_Atoms:                  28
##########                          Grid_Score:          -30.922495
##########                     Grid_vdw_energy:          -30.376772
##########                      Grid_es_energy:           -0.545723
##########           Internal_energy_repulsive:           17.045082

@<TRIPOS>MOLECULE
ZINC000163855860
 50 53 1 0 0
SMALL
USER_CHARGES


@<TRIPOS>ATOM
      1 C1         -9.8391   -0.2031   53.3253 C.3     1  ZINC000163855860   -0.1300
      2 C2         -9.0183    0.5836   54.3145 C.ar    1  ZINC000163855860   -0.0600
      3 C3         -9.5722    0.9723   55.5241 C.ar    1  ZINC000163855860    0.1400
      4 N4        -10.8955    0.6339   55.8288 N.am    1  ZINC000163855860   -0.6700
      5 C5        -11.1535   -0.3091   56.7566 C.2     1  ZINC000163855860    0.5100
      6 O6        -10.2387   -0.8642   57.3276 O.2     1  ZINC000163855860   -0.5100
      7 C7        -12.5784   -0.6735   57.0846 C.3     1  ZINC000163855860   -0.1300
      8 C8        -12.6041   -2.0064   57.8354 C.3     1  ZINC000163855860   -0.1100
      9 H9        -11.8684   -2.6983   57.4254 H       1  ZINC000163855860    0.1100
     10 C10       -12.3738   -1.7905   59.3485 C.3     1  ZINC000163855860    0.0600
     11 O11       -13.2045   -2.8025   59.9908 O.3     1  ZINC000163855860   -0.3500
     12 C12       -14.2816   -3.0566   59.2340 C.2     1  ZINC000163855860    0.4800
     13 O13       -15.3083   -3.5541   59.6317 O.2     1  ZINC000163855860   -0.4500
     14 C14       -14.0187   -2.6268   57.8070 C.3     1  ZINC000163855860   -0.1800
     15 C15        -8.8114    1.6933   56.4370 C.ar    1  ZINC000163855860   -0.1100
     16 C16        -7.5038    2.0292   56.1413 C.ar    1  ZINC000163855860   -0.1100
     17 C17        -6.9445    1.6509   54.9375 C.ar    1  ZINC000163855860   -0.1000
     18 C18        -7.7003    0.9271   54.0138 C.ar    1  ZINC000163855860   -0.1100
     19 C19        -7.1035    0.5202   52.7236 C.2     1  ZINC000163855860    0.5700
     20 O20        -6.8075   -0.6428   52.5309 O.2     1  ZINC000163855860   -0.5300
     21 N21        -6.8877    1.4388   51.7614 N.am    1  ZINC000163855860   -0.6100
     22 C22        -7.2385    2.8511   51.9739 C.3     1  ZINC000163855860    0.1200
     23 C23        -5.9428    3.6774   51.9624 C.3     1  ZINC000163855860   -0.0600
     24 C24        -5.0878    3.2393   50.7923 C.2     1  ZINC000163855860   -0.1700
     25 C25        -5.2280    2.0798   50.1223 C.2     1  ZINC000163855860   -0.1300
     26 C26        -4.3077    1.9114   49.0925 C.2     1  ZINC000163855860   -0.1200
     27 C27        -3.4441    2.9078   48.9240 C.2     1  ZINC000163855860   -0.2100
     28 S28        -3.7584    4.1667   50.1089 S.3     1  ZINC000163855860    0.1100
     29 C29        -6.3012    1.0545   50.4697 C.3     1  ZINC000163855860    0.1700
     30 H30       -10.2878    0.4782   52.6023 H       1  ZINC000163855860    0.0700
     31 H31        -9.1975   -0.9141   52.8048 H       1  ZINC000163855860    0.0900
     32 H32       -10.6257   -0.7422   53.8532 H       1  ZINC000163855860    0.0700
     33 H33       -11.6272    1.0780   55.3722 H       1  ZINC000163855860    0.4100
     34 H34       -13.1516   -0.7650   56.1620 H       1  ZINC000163855860    0.1100
     35 H35       -13.0177    0.1040   57.7095 H       1  ZINC000163855860    0.1100
     36 H36       -12.6944   -0.7915   59.6436 H       1  ZINC000163855860    0.0800
     37 H37       -11.3243   -1.9442   59.5996 H       1  ZINC000163855860    0.1200
     38 H38       -14.0415   -3.4892   57.1408 H       1  ZINC000163855860    0.1200
     39 H39       -14.7524   -1.8843   57.4932 H       1  ZINC000163855860    0.1200
     40 H40        -9.2435    1.9917   57.3808 H       1  ZINC000163855860    0.1500
     41 H41        -6.9175    2.5891   56.8548 H       1  ZINC000163855860    0.1300
     42 H42        -5.9224    1.9154   54.7101 H       1  ZINC000163855860    0.1300
     43 H43        -7.8977    3.1889   51.1743 H       1  ZINC000163855860    0.0800
     44 H44        -7.7384    2.9633   52.9360 H       1  ZINC000163855860    0.1000
     45 H45        -5.3976    3.5169   52.8925 H       1  ZINC000163855860    0.0900
     46 H46        -6.1860    4.7350   51.8602 H       1  ZINC000163855860    0.0900
     47 H47        -4.2955    1.0285   48.4707 H       1  ZINC000163855860    0.1400
     48 H48        -2.6684    2.9391   48.1732 H       1  ZINC000163855860    0.1700
     49 H49        -5.8538    0.0636   50.5476 H       1  ZINC000163855860    0.1000
     50 H50        -7.0730    1.0514   49.7000 H       1  ZINC000163855860    0.0900
@<TRIPOS>BOND
     1     1     2    1
     2     1    30    1
     3     1    31    1
     4     1    32    1
     5     2    18   ar
     6     2     3   ar
     7     3     4    1
     8     3    15   ar
     9     4     5   am
    10     4    33    1
    11     5     6    2
    12     5     7    1
    13     7     8    1
    14     7    34    1
    15     7    35    1
    16     8     9    1
    17     8    14    1
    18     8    10    1
    19    10    11    1
    20    10    36    1
    21    10    37    1
    22    11    12    1
    23    12    13    2
    24    12    14    1
    25    14    38    1
    26    14    39    1
    27    15    16   ar
    28    15    40    1
    29    16    17   ar
    30    16    41    1
    31    17    18   ar
    32    17    42    1
    33    18    19    1
    34    19    20    2
    35    19    21   am
    36    21    29    1
    37    21    22    1
    38    22    23    1
    39    22    43    1
    40    22    44    1
    41    23    24    1
    42    23    45    1
    43    23    46    1
    44    24    28    1
    45    24    25    2
    46    25    26    1
    47    25    29    1
    48    26    27    2
    49    26    47    1
    50    27    28    1
    51    27    48    1
    52    29    49    1
    53    29    50    1
@<TRIPOS>SUBSTRUCTURE
     1 ZINC000163855860        1 TEMP              0 ****  ****    0 ROOT


##########                                Name:    ZINC000564088286
##########                DOCK_Rotatable_Bonds:                   6
##########                         Heavy_Atoms:                  25
##########                    Molecular_Weight:             398.934
##########                DOCK_Rotatable_Bonds:                   6
##########                       Formal_Charge:               -0.05
##########                     HBond_Acceptors:                   8
##########                        HBond_Donors:                   1
##########                         Heavy_Atoms:                  25
##########                          Grid_Score:          -30.911003
##########                     Grid_vdw_energy:          -30.193481
##########                      Grid_es_energy:           -0.717521
##########           Internal_energy_repulsive:           11.178649

@<TRIPOS>MOLECULE
ZINC000564088286
 44 46 1 0 0
SMALL
USER_CHARGES


@<TRIPOS>ATOM
      1 C1          2.4741   -0.6244   49.6971 C.3     1  ZINC000564088286   -0.1600
      2 C2          2.4028    0.8702   49.3774 C.3     1  ZINC000564088286    0.1100
      3 N3          2.3180    1.0557   47.9267 N.am    1  ZINC000564088286   -1.1200
      4 S4          1.6535    2.4399   47.3065 S.o2    1  ZINC000564088286    2.7000
      5 O5          2.3468    3.5233   47.9105 O.2     1  ZINC000564088286   -0.9600
      6 O6          1.5775    2.2533   45.8998 O.2     1  ZINC000564088286   -0.9600
      7 C7         -0.0077    2.5267   47.8873 C.ar    1  ZINC000564088286   -0.6800
      8 C8         -1.0430    2.0749   47.0904 C.ar    1  ZINC000564088286   -0.0200
      9 C9         -2.3464    2.1430   47.5461 C.ar    1  ZINC000564088286   -0.1300
     10 C10        -2.6144    2.6624   48.7989 C.ar    1  ZINC000564088286   -0.0100
     11 C11        -4.0352    2.7371   49.2954 C.3     1  ZINC000564088286   -0.1100
     12 C12        -4.5542    1.3443   49.5442 C.2     1  ZINC000564088286    0.5200
     13 O13        -3.8049    0.3942   49.4618 O.2     1  ZINC000564088286   -0.5200
     14 N14        -5.8510    1.1545   49.8584 N.am    1  ZINC000564088286   -0.6200
     15 C15        -6.3779   -0.1962   50.1051 C.3     1  ZINC000564088286    0.1200
     16 C16        -6.8190   -0.2881   51.5692 C.3     1  ZINC000564088286   -0.0700
     17 C17        -7.6143    0.9502   51.9251 C.2     1  ZINC000564088286   -0.1600
     18 C18        -7.6022    2.1035   51.2311 C.2     1  ZINC000564088286   -0.1200
     19 C19        -8.4149    3.0945   51.7738 C.2     1  ZINC000564088286   -0.1100
     20 C20        -9.0773    2.7551   52.8766 C.2     1  ZINC000564088286   -0.1500
     21 Cl21      -10.1576    3.7923   53.7544 Cl      1  ZINC000564088286   -0.0100
     22 S22        -8.6914    1.0961   53.3081 S.3     1  ZINC000564088286    0.1600
     23 C23        -6.7745    2.2924   49.9696 C.3     1  ZINC000564088286    0.1700
     24 C24        -1.5789    3.1129   49.5962 C.ar    1  ZINC000564088286   -0.1300
     25 C25        -0.2753    3.0413   49.1421 C.ar    1  ZINC000564088286   -0.0200
     26 H26         1.5798   -1.1199   49.3192 H       1  ZINC000564088286    0.0600
     27 H27         3.3560   -1.0556   49.2235 H       1  ZINC000564088286    0.0600
     28 H28         2.5372   -0.7625   50.7765 H       1  ZINC000564088286    0.0700
     29 H29         1.5209    1.3013   49.8511 H       1  ZINC000564088286    0.0800
     30 H30         3.2971    1.3656   49.7554 H       1  ZINC000564088286    0.0700
     31 H31         2.6511    0.3677   47.3294 H       1  ZINC000564088286    0.4200
     32 H32        -0.8336    1.6691   46.1118 H       1  ZINC000564088286    0.1400
     33 H33        -3.1552    1.7906   46.9232 H       1  ZINC000564088286    0.1300
     34 H34        -4.0663    3.3076   50.2236 H       1  ZINC000564088286    0.1100
     35 H35        -4.6566    3.2278   48.5462 H       1  ZINC000564088286    0.1100
     36 H36        -7.2318   -0.3807   49.4533 H       1  ZINC000564088286    0.0800
     37 H37        -5.5995   -0.9340   49.9104 H       1  ZINC000564088286    0.1100
     38 H38        -7.4406   -1.1727   51.7078 H       1  ZINC000564088286    0.0900
     39 H39        -5.9406   -0.3541   52.2112 H       1  ZINC000564088286    0.0900
     40 H40        -8.5019    4.0749   51.3292 H       1  ZINC000564088286    0.1500
     41 H41        -6.2110    3.2233   50.0336 H       1  ZINC000564088286    0.1000
     42 H42        -7.4292    2.3156   49.0984 H       1  ZINC000564088286    0.0900
     43 H43        -1.7883    3.5184   50.5751 H       1  ZINC000564088286    0.1300
     44 H44         0.5337    3.3933   49.7650 H       1  ZINC000564088286    0.1400
@<TRIPOS>BOND
     1     1     2    1
     2     1    26    1
     3     1    27    1
     4     1    28    1
     5     2     3    1
     6     2    29    1
     7     2    30    1
     8     3     4   am
     9     3    31    1
    10     4     5    2
    11     4     6    2
    12     4     7    1
    13     7    25   ar
    14     7     8   ar
    15     8     9   ar
    16     8    32    1
    17     9    10   ar
    18     9    33    1
    19    10    11    1
    20    10    24   ar
    21    11    12    1
    22    11    34    1
    23    11    35    1
    24    12    13    2
    25    12    14   am
    26    14    23    1
    27    14    15    1
    28    15    16    1
    29    15    36    1
    30    15    37    1
    31    16    17    1
    32    16    38    1
    33    16    39    1
    34    17    22    1
    35    17    18    2
    36    18    19    1
    37    18    23    1
    38    19    20    2
    39    19    40    1
    40    20    21    1
    41    20    22    1
    42    23    41    1
    43    23    42    1
    44    24    25   ar
    45    24    43    1
    46    25    44    1
@<TRIPOS>SUBSTRUCTURE
     1 ZINC000564088286        1 TEMP              0 ****  ****    0 ROOT


##########                                Name:    ZINC000077537368
##########                DOCK_Rotatable_Bonds:                   5
##########                         Heavy_Atoms:                  27
##########                    Molecular_Weight:             365.478
##########                DOCK_Rotatable_Bonds:                   5
##########                       Formal_Charge:          -0.0400007
##########                     HBond_Acceptors:                   6
##########                        HBond_Donors:                   0
##########                         Heavy_Atoms:                  27
##########                          Grid_Score:          -30.878183
##########                     Grid_vdw_energy:          -29.679676
##########                      Grid_es_energy:           -1.198507
##########           Internal_energy_repulsive:           10.980416

@<TRIPOS>MOLECULE
ZINC000077537368
 54 56 1 0 0
SMALL
USER_CHARGES


@<TRIPOS>ATOM
      1 C1         -8.0308   -0.4632   52.1718 C.3     1  ZINC000077537368    0.0800
      2 N2         -7.7511    0.7907   52.8757 N.pl3   1  ZINC000077537368   -0.2600
      3 N3         -7.9915    1.0117   54.1180 N.2     1  ZINC000077537368   -0.2700
      4 C4         -7.6321    2.2240   54.4550 C.2     1  ZINC000077537368    0.0400
      5 C5         -7.7599    2.8388   55.8250 C.3     1  ZINC000077537368    0.0200
      6 C6         -6.5069    2.5236   56.6444 C.3     1  ZINC000077537368   -0.1400
      7 C7         -7.9137    4.3552   55.6912 C.3     1  ZINC000077537368   -0.1400
      8 C8         -8.9890    2.2618   56.5303 C.3     1  ZINC000077537368   -0.1400
      9 C9         -7.1083    2.8469   53.3199 C.2     1  ZINC000077537368   -0.2000
     10 C10        -7.1894    1.9012   52.3125 C.2     1  ZINC000077537368   -0.0400
     11 C11        -6.7641    2.0628   50.9130 C.2     1  ZINC000077537368    0.5900
     12 O12        -7.5899    2.2864   50.0484 O.2     1  ZINC000077537368   -0.5400
     13 N13        -5.4595    1.9629   50.5893 N.am    1  ZINC000077537368   -0.6000
     14 C14        -5.0123    2.1269   49.1978 C.3     1  ZINC000077537368    0.0800
     15 C15        -3.8748    3.1534   49.1700 C.3     1  ZINC000077537368    0.0400
     16 N16        -2.8272    2.7445   50.1152 N.3     1  ZINC000077537368   -0.5300
     17 C17        -1.6440    3.6067   49.9948 C.3     1  ZINC000077537368    0.0900
     18 C18        -0.4009    2.7548   49.9812 C.ar    1  ZINC000077537368   -0.0500
     19 C19         0.0327    2.1883   48.7956 C.ar    1  ZINC000077537368   -0.1200
     20 C20         1.1695    1.4072   48.7760 C.ar    1  ZINC000077537368   -0.0700
     21 C21         1.8832    1.1890   49.9562 C.ar    1  ZINC000077537368   -0.0300
     22 C22         3.0644    0.3796   49.9432 C.1     1  ZINC000077537368    0.2500
     23 N23         4.0015   -0.2626   49.9329 N.1     1  ZINC000077537368   -0.4100
     24 C24         1.4402    1.7641   51.1489 C.ar    1  ZINC000077537368   -0.0700
     25 C25         0.3047    2.5474   51.1532 C.ar    1  ZINC000077537368   -0.1000
     26 C26        -3.3305    2.7307   51.4952 C.3     1  ZINC000077537368    0.0400
     27 C27        -4.4448    1.6930   51.6193 C.3     1  ZINC000077537368    0.1200
     28 H28        -7.1321   -1.0799   52.1568 H       1  ZINC000077537368    0.0800
     29 H29        -8.8297   -0.9979   52.6856 H       1  ZINC000077537368    0.1000
     30 H30        -8.3388   -0.2450   51.1492 H       1  ZINC000077537368    0.1100
     31 H31        -5.6313    2.9346   56.1419 H       1  ZINC000077537368    0.0600
     32 H32        -6.5994    2.9683   57.6353 H       1  ZINC000077537368    0.0600
     33 H33        -6.3974    1.4434   56.7397 H       1  ZINC000077537368    0.0600
     34 H34        -8.8064    4.5797   55.1074 H       1  ZINC000077537368    0.0600
     35 H35        -8.0062    4.7999   56.6820 H       1  ZINC000077537368    0.0600
     36 H36        -7.0381    4.7662   55.1886 H       1  ZINC000077537368    0.0600
     37 H37        -8.8795    1.1816   56.6256 H       1  ZINC000077537368    0.0600
     38 H38        -9.0814    2.7065   57.5211 H       1  ZINC000077537368    0.0600
     39 H39        -9.8817    2.4864   55.9465 H       1  ZINC000077537368    0.0600
     40 H40        -6.7193    3.8516   53.2449 H       1  ZINC000077537368    0.1700
     41 H41        -4.6533    1.1721   48.8137 H       1  ZINC000077537368    0.0800
     42 H42        -5.8414    2.4825   48.5862 H       1  ZINC000077537368    0.1200
     43 H43        -3.4571    3.2063   48.1646 H       1  ZINC000077537368    0.0900
     44 H44        -4.2608    4.1319   49.4559 H       1  ZINC000077537368    0.0400
     45 H45        -1.7032    4.1777   49.0683 H       1  ZINC000077537368    0.0900
     46 H46        -1.6057    4.2915   50.8419 H       1  ZINC000077537368    0.0500
     47 H47        -0.5203    2.3578   47.8835 H       1  ZINC000077537368    0.1300
     48 H48         1.5065    0.9650   47.8501 H       1  ZINC000077537368    0.1300
     49 H49         1.9875    1.5994   52.0652 H       1  ZINC000077537368    0.1300
     50 H50        -0.0389    2.9931   52.0749 H       1  ZINC000077537368    0.1400
     51 H51        -2.5179    2.4770   52.1761 H       1  ZINC000077537368    0.1000
     52 H52        -3.7240    3.7150   51.7487 H       1  ZINC000077537368    0.0400
     53 H53        -4.8981    1.7590   52.6083 H       1  ZINC000077537368    0.1000
     54 H54        -4.0342    0.6948   51.4675 H       1  ZINC000077537368    0.0800
@<TRIPOS>BOND
     1     1     2    1
     2     1    28    1
     3     1    29    1
     4     1    30    1
     5     2    10    1
     6     2     3    1
     7     3     4    2
     8     4     5    1
     9     4     9    1
    10     5     6    1
    11     5     7    1
    12     5     8    1
    13     6    31    1
    14     6    32    1
    15     6    33    1
    16     7    34    1
    17     7    35    1
    18     7    36    1
    19     8    37    1
    20     8    38    1
    21     8    39    1
    22     9    10    2
    23     9    40    1
    24    10    11    1
    25    11    12    2
    26    11    13   am
    27    13    27    1
    28    13    14    1
    29    14    15    1
    30    14    41    1
    31    14    42    1
    32    15    16    1
    33    15    43    1
    34    15    44    1
    35    16    17    1
    36    16    26    1
    37    17    18    1
    38    17    45    1
    39    17    46    1
    40    18    25   ar
    41    18    19   ar
    42    19    20   ar
    43    19    47    1
    44    20    21   ar
    45    20    48    1
    46    21    22    1
    47    21    24   ar
    48    22    23    3
    49    24    25   ar
    50    24    49    1
    51    25    50    1
    52    26    27    1
    53    26    51    1
    54    26    52    1
    55    27    53    1
    56    27    54    1
@<TRIPOS>SUBSTRUCTURE
     1 ZINC000077537368        1 TEMP              0 ****  ****    0 ROOT


##########                                Name:    ZINC000482910431
##########                DOCK_Rotatable_Bonds:                   7
##########                         Heavy_Atoms:                  29
##########                    Molecular_Weight:             414.867
##########                DOCK_Rotatable_Bonds:                   7
##########                       Formal_Charge:          -0.0300001
##########                     HBond_Acceptors:                   8
##########                        HBond_Donors:                   2
##########                         Heavy_Atoms:                  29
##########                          Grid_Score:          -30.850288
##########                     Grid_vdw_energy:          -29.879679
##########                      Grid_es_energy:           -0.970610
##########           Internal_energy_repulsive:           13.622136

@<TRIPOS>MOLECULE
ZINC000482910431
 49 51 1 0 0
SMALL
USER_CHARGES


@<TRIPOS>ATOM
      1 C1        -13.9380   -0.3441   55.3226 C.3     1  ZINC000482910431   -0.1500
      2 C2        -12.9869    0.7929   55.7012 C.3     1  ZINC000482910431    0.0800
      3 C3        -13.6159    2.1335   55.3162 C.3     1  ZINC000482910431   -0.1400
      4 C4        -12.7416    0.7648   57.1523 C.1     1  ZINC000482910431    0.2100
      5 N5        -12.5523    0.7432   58.2723 N.1     1  ZINC000482910431   -0.4300
      6 C6        -11.6818    0.6214   54.9678 C.ar    1  ZINC000482910431   -0.1000
      7 C7        -10.4853    0.7566   55.6478 C.ar    1  ZINC000482910431   -0.0900
      8 C8         -9.2874    0.5996   54.9786 C.ar    1  ZINC000482910431   -0.1200
      9 C9         -9.2852    0.3056   53.6215 C.ar    1  ZINC000482910431    0.1700
     10 N10        -8.0731    0.1454   52.9406 N.am    1  ZINC000482910431   -0.6800
     11 C11        -7.7168    1.0242   51.9831 C.2     1  ZINC000482910431    0.7100
     12 O12        -8.4485    1.9563   51.7106 O.2     1  ZINC000482910431   -0.5500
     13 N13        -6.5494    0.8700   51.3273 N.am    1  ZINC000482910431   -0.7300
     14 C14        -6.1630    1.8243   50.2852 C.3     1  ZINC000482910431    0.1400
     15 H15        -6.9459    1.9018   49.5308 H       1  ZINC000482910431    0.1400
     16 C16        -5.8679    3.2106   50.9034 C.3     1  ZINC000482910431   -0.1400
     17 C17        -4.6891    3.6994   50.0327 C.3     1  ZINC000482910431    0.0900
     18 N18        -4.0446    2.4816   49.5271 N.am    1  ZINC000482910431   -0.5600
     19 C19        -2.7549    2.4375   48.9852 C.ar    1  ZINC000482910431    0.2000
     20 C20        -2.5786    2.2010   47.6283 C.ar    1  ZINC000482910431   -0.1600
     21 C21        -1.3051    2.1578   47.0946 C.ar    1  ZINC000482910431   -0.0500
     22 C22        -0.2047    2.3497   47.9103 C.ar    1  ZINC000482910431   -0.1000
     23 Cl23        1.3942    2.2946   47.2361 Cl      1  ZINC000482910431   -0.0500
     24 C24        -0.3767    2.5866   49.2652 C.ar    1  ZINC000482910431    0.1400
     25 F25         0.6995    2.7743   50.0601 F       1  ZINC000482910431   -0.1200
     26 C26        -1.6501    2.6359   49.8026 C.ar    1  ZINC000482910431   -0.1900
     27 C27        -4.8537    1.4122   49.6490 C.2     1  ZINC000482910431    0.5000
     28 O28        -4.5715    0.2845   49.3030 O.2     1  ZINC000482910431   -0.4800
     29 C29       -10.4884    0.1705   52.9414 C.ar    1  ZINC000482910431   -0.1400
     30 C30       -11.6830    0.3235   53.6175 C.ar    1  ZINC000482910431   -0.0900
     31 H31       -14.1197   -0.3233   54.2480 H       1  ZINC000482910431    0.0800
     32 H32       -13.4899   -1.2992   55.5969 H       1  ZINC000482910431    0.0700
     33 H33       -14.8821   -0.2200   55.8531 H       1  ZINC000482910431    0.0700
     34 H34       -14.5600    2.2576   55.8468 H       1  ZINC000482910431    0.0700
     35 H35       -12.9384    2.9436   55.5859 H       1  ZINC000482910431    0.0700
     36 H36       -13.7976    2.1544   54.2417 H       1  ZINC000482910431    0.0800
     37 H37       -10.4876    0.9856   56.7033 H       1  ZINC000482910431    0.1400
     38 H38        -8.3532    0.7056   55.5103 H       1  ZINC000482910431    0.1400
     39 H39        -7.4894   -0.5983   53.1579 H       1  ZINC000482910431    0.4100
     40 H40        -5.9652    0.1271   51.5454 H       1  ZINC000482910431    0.4000
     41 H41        -6.7276    3.8732   50.8034 H       1  ZINC000482910431    0.1100
     42 H42        -5.5690    3.1166   51.9473 H       1  ZINC000482910431    0.1000
     43 H43        -5.0577    4.3031   49.2034 H       1  ZINC000482910431    0.0900
     44 H44        -3.9874    4.2747   50.6365 H       1  ZINC000482910431    0.1000
     45 H45        -3.4369    2.0506   46.9903 H       1  ZINC000482910431    0.1700
     46 H46        -1.1685    1.9733   46.0393 H       1  ZINC000482910431    0.1500
     47 H47        -1.7848    2.8208   50.8581 H       1  ZINC000482910431    0.1500
     48 H48       -10.4900   -0.0582   51.8859 H       1  ZINC000482910431    0.1300
     49 H49       -12.6191    0.2181   53.0892 H       1  ZINC000482910431    0.1300
@<TRIPOS>BOND
     1     1     2    1
     2     1    31    1
     3     1    32    1
     4     1    33    1
     5     2     3    1
     6     2     4    1
     7     2     6    1
     8     3    34    1
     9     3    35    1
    10     3    36    1
    11     4     5    3
    12     6    30   ar
    13     6     7   ar
    14     7     8   ar
    15     7    37    1
    16     8     9   ar
    17     8    38    1
    18     9    10    1
    19     9    29   ar
    20    10    11   am
    21    10    39    1
    22    11    12    2
    23    11    13   am
    24    13    14    1
    25    13    40    1
    26    14    15    1
    27    14    27    1
    28    14    16    1
    29    16    17    1
    30    16    41    1
    31    16    42    1
    32    17    18    1
    33    17    43    1
    34    17    44    1
    35    18    19    1
    36    18    27   am
    37    19    26   ar
    38    19    20   ar
    39    20    21   ar
    40    20    45    1
    41    21    22   ar
    42    21    46    1
    43    22    23    1
    44    22    24   ar
    45    24    25    1
    46    24    26   ar
    47    26    47    1
    48    27    28    2
    49    29    30   ar
    50    29    48    1
    51    30    49    1
@<TRIPOS>SUBSTRUCTURE
     1 ZINC000482910431        1 TEMP              0 ****  ****    0 ROOT


##########                                Name:    ZINC000028372981
##########                DOCK_Rotatable_Bonds:                   7
##########                         Heavy_Atoms:                  28
##########                    Molecular_Weight:             380.443
##########                DOCK_Rotatable_Bonds:                   7
##########                       Formal_Charge:         1.78814e-07
##########                     HBond_Acceptors:                   6
##########                        HBond_Donors:                   1
##########                         Heavy_Atoms:                  28
##########                          Grid_Score:          -30.799629
##########                     Grid_vdw_energy:          -29.992680
##########                      Grid_es_energy:           -0.806950
##########           Internal_energy_repulsive:           19.756096

@<TRIPOS>MOLECULE
ZINC000028372981
 52 54 1 0 0
SMALL
USER_CHARGES


@<TRIPOS>ATOM
      1 C1          2.5167    1.6280   48.9329 C.3     1  ZINC000028372981   -0.1800
      2 C2          1.0510    1.8117   48.6344 C.2     1  ZINC000028372981    0.5200
      3 O3          0.6203    1.5553   47.5301 O.2     1  ZINC000028372981   -0.5100
      4 N4          0.2189    2.2610   49.5947 N.am    1  ZINC000028372981   -0.5500
      5 C5          0.6219    2.6011   50.9616 C.3     1  ZINC000028372981    0.1000
      6 C6         -0.6689    3.0571   51.6614 C.3     1  ZINC000028372981   -0.0900
      7 C7         -1.7389    2.9354   50.5994 C.ar    1  ZINC000028372981   -0.1500
      8 C8         -3.0877    3.2084   50.6442 C.ar    1  ZINC000028372981    0.0000
      9 C9         -3.8802    3.0065   49.5105 C.ar    1  ZINC000028372981   -0.1600
     10 C10        -5.3262    3.2923   49.5545 C.2     1  ZINC000028372981    0.5200
     11 O11        -5.7208    4.4398   49.4920 O.2     1  ZINC000028372981   -0.5000
     12 O12        -6.2099    2.2810   49.6640 O.3     1  ZINC000028372981   -0.3200
     13 C13        -6.0013    1.3376   50.7478 C.3     1  ZINC000028372981    0.0700
     14 H14        -5.4025    1.8074   51.5281 H       1  ZINC000028372981    0.1200
     15 C15        -5.2690    0.1038   50.2163 C.3     1  ZINC000028372981   -0.1700
     16 C16        -7.3339    0.9243   51.3175 C.2     1  ZINC000028372981    0.5200
     17 O17        -7.7492   -0.2003   51.1342 O.2     1  ZINC000028372981   -0.4900
     18 N18        -8.0641    1.8044   52.0307 N.am    1  ZINC000028372981   -0.6600
     19 C19        -9.3013    1.4207   52.5597 C.ar    1  ZINC000028372981    0.1500
     20 C20        -9.4096    0.2488   53.2966 C.ar    1  ZINC000028372981   -0.1300
     21 C21       -10.6324   -0.1270   53.8179 C.ar    1  ZINC000028372981   -0.1000
     22 C22       -11.7476    0.6625   53.6068 C.ar    1  ZINC000028372981   -0.1300
     23 C23       -11.6430    1.8305   52.8736 C.ar    1  ZINC000028372981   -0.0700
     24 C24       -12.8610    2.6883   52.6465 C.3     1  ZINC000028372981   -0.1200
     25 C25       -10.4237    2.2114   52.3491 C.ar    1  ZINC000028372981   -0.1200
     26 C26       -10.3107    3.4836   51.5494 C.3     1  ZINC000028372981   -0.1200
     27 C27        -3.2907    2.5371   48.3331 C.ar    1  ZINC000028372981   -0.0200
     28 C28        -1.9431    2.2725   48.2958 C.ar    1  ZINC000028372981   -0.1800
     29 C29        -1.1494    2.4689   49.4312 C.ar    1  ZINC000028372981    0.1900
     30 H30         2.6352    0.9075   49.7422 H       1  ZINC000028372981    0.1000
     31 H31         3.0257    1.2605   48.0418 H       1  ZINC000028372981    0.1000
     32 H32         2.9493    2.5832   49.2306 H       1  ZINC000028372981    0.1000
     33 H33         1.0346    1.7256   51.4630 H       1  ZINC000028372981    0.0900
     34 H34         1.3519    3.4104   50.9502 H       1  ZINC000028372981    0.0900
     35 H35        -0.8947    2.4054   52.5054 H       1  ZINC000028372981    0.1000
     36 H36        -0.5763    4.0910   51.9941 H       1  ZINC000028372981    0.1000
     37 H37        -3.5343    3.5746   51.5567 H       1  ZINC000028372981    0.1400
     38 H38        -5.8678   -0.3659   49.4359 H       1  ZINC000028372981    0.0800
     39 H39        -4.3052    0.4028   49.8042 H       1  ZINC000028372981    0.0800
     40 H40        -5.1124   -0.6044   51.0299 H       1  ZINC000028372981    0.0800
     41 H41        -7.7319    2.7039   52.1773 H       1  ZINC000028372981    0.4100
     42 H42        -8.5378   -0.3658   53.4659 H       1  ZINC000028372981    0.1400
     43 H43       -10.7172   -1.0383   54.3912 H       1  ZINC000028372981    0.1300
     44 H44       -12.7025    0.3667   54.0157 H       1  ZINC000028372981    0.1200
     45 H45       -12.9478    3.4169   53.4525 H       1  ZINC000028372981    0.0700
     46 H46       -12.7657    3.2097   51.6940 H       1  ZINC000028372981    0.0700
     47 H47       -13.7506    2.0587   52.6286 H       1  ZINC000028372981    0.0700
     48 H48       -10.0765    4.3128   52.2170 H       1  ZINC000028372981    0.0700
     49 H49        -9.5178    3.3783   50.8090 H       1  ZINC000028372981    0.0600
     50 H50       -11.2562    3.6801   51.0439 H       1  ZINC000028372981    0.0800
     51 H51        -3.8954    2.3828   47.4517 H       1  ZINC000028372981    0.1500
     52 H52        -1.4931    1.9097   47.3835 H       1  ZINC000028372981    0.1500
@<TRIPOS>BOND
     1     1     2    1
     2     1    30    1
     3     1    31    1
     4     1    32    1
     5     2     3    2
     6     2     4   am
     7     4    29    1
     8     4     5    1
     9     5     6    1
    10     5    33    1
    11     5    34    1
    12     6     7    1
    13     6    35    1
    14     6    36    1
    15     7    29   ar
    16     7     8   ar
    17     8     9   ar
    18     8    37    1
    19     9    10    1
    20     9    27   ar
    21    10    11    2
    22    10    12    1
    23    12    13    1
    24    13    14    1
    25    13    15    1
    26    13    16    1
    27    15    38    1
    28    15    39    1
    29    15    40    1
    30    16    17    2
    31    16    18   am
    32    18    19    1
    33    18    41    1
    34    19    25   ar
    35    19    20   ar
    36    20    21   ar
    37    20    42    1
    38    21    22   ar
    39    21    43    1
    40    22    23   ar
    41    22    44    1
    42    23    24    1
    43    23    25   ar
    44    24    45    1
    45    24    46    1
    46    24    47    1
    47    25    26    1
    48    26    48    1
    49    26    49    1
    50    26    50    1
    51    27    28   ar
    52    27    51    1
    53    28    29   ar
    54    28    52    1
@<TRIPOS>SUBSTRUCTURE
     1 ZINC000028372981        1 TEMP              0 ****  ****    0 ROOT


##########                                Name:    ZINC001490207225
##########                DOCK_Rotatable_Bonds:                   7
##########                         Heavy_Atoms:                  24
##########                    Molecular_Weight:             334.378
##########                DOCK_Rotatable_Bonds:                   7
##########                       Formal_Charge:           -0.010001
##########                     HBond_Acceptors:                   9
##########                        HBond_Donors:                   3
##########                         Heavy_Atoms:                  24
##########                          Grid_Score:          -30.777855
##########                     Grid_vdw_energy:          -29.466999
##########                      Grid_es_energy:           -1.310856
##########           Internal_energy_repulsive:            5.898951

@<TRIPOS>MOLECULE
ZINC001490207225
 46 48 1 0 0
SMALL
USER_CHARGES


@<TRIPOS>ATOM
      1 C1        -10.6440   -1.8382   57.6385 C.3     1  ZINC001490207225    0.0900
      2 N2        -10.6437   -1.0125   56.4284 N.pl3   1  ZINC001490207225   -0.3600
      3 C3         -9.9452    0.1204   56.2518 C.2     1  ZINC001490207225    0.1300
      4 C4        -10.2227    0.5833   54.9813 C.2     1  ZINC001490207225   -0.3000
      5 C5         -9.6766    1.8010   54.3547 C.2     1  ZINC001490207225    0.6200
      6 O6        -10.0894    2.8946   54.6897 O.2     1  ZINC001490207225   -0.5400
      7 N7         -8.7199    1.7019   53.4105 N.am    1  ZINC001490207225   -0.6200
      8 C8         -8.1212    0.4614   52.8915 C.3     1  ZINC001490207225    0.1100
      9 C9         -6.6715    0.8047   52.5114 C.3     1  ZINC001490207225   -0.1100
     10 H10        -5.9570    0.4373   53.2481 H       1  ZINC001490207225    0.1000
     11 C11        -6.3783    0.2605   51.0974 C.3     1  ZINC001490207225    0.1000
     12 N12        -5.6481    1.3549   50.4171 N.am    1  ZINC001490207225   -0.6200
     13 C13        -4.5950    1.2523   49.5823 C.2     1  ZINC001490207225    0.5300
     14 O14        -4.1400    0.1611   49.3114 O.2     1  ZINC001490207225   -0.5300
     15 C15        -3.9829    2.4932   48.9854 C.3     1  ZINC001490207225    0.1200
     16 N16        -3.1832    2.1281   47.8134 N.am    1  ZINC001490207225   -0.7400
     17 C17        -1.8401    2.0664   47.9067 C.2     1  ZINC001490207225    0.7100
     18 N18        -1.1046    1.7290   46.8290 N.am    1  ZINC001490207225   -0.8600
     19 O19        -1.2920    2.3151   48.9631 O.2     1  ZINC001490207225   -0.5900
     20 C20        -6.3379    2.5876   50.8624 C.3     1  ZINC001490207225    0.1100
     21 C21        -6.6380    2.3499   52.3831 C.3     1  ZINC001490207225   -0.0800
     22 C22        -5.5947    3.0118   53.2855 C.3     1  ZINC001490207225   -0.1300
     23 C23        -8.0742    2.8128   52.6923 C.3     1  ZINC001490207225    0.1000
     24 C24       -11.1280   -0.3286   54.3937 C.2     1  ZINC001490207225    0.0700
     25 N25       -11.3667   -1.2748   55.2593 N.2     1  ZINC001490207225   -0.2900
     26 H26        -9.8521   -2.5838   57.5698 H       1  ZINC001490207225    0.0800
     27 H27       -10.4731   -1.2059   58.5098 H       1  ZINC001490207225    0.0900
     28 H28       -11.6072   -2.3389   57.7364 H       1  ZINC001490207225    0.1000
     29 H29        -9.2871    0.5845   56.9716 H       1  ZINC001490207225    0.1900
     30 H30        -8.1333   -0.3103   53.6612 H       1  ZINC001490207225    0.0900
     31 H31        -8.6680    0.1216   52.0119 H       1  ZINC001490207225    0.0800
     32 H32        -5.7560   -0.6324   51.1557 H       1  ZINC001490207225    0.0900
     33 H33        -7.3092    0.0423   50.5740 H       1  ZINC001490207225    0.0900
     34 H34        -4.7740    3.1805   48.6856 H       1  ZINC001490207225    0.1000
     35 H35        -3.3439    2.9752   49.7254 H       1  ZINC001490207225    0.1000
     36 H36        -3.6204    1.9308   46.9702 H       1  ZINC001490207225    0.4100
     37 H37        -0.1379    1.6835   46.8965 H       1  ZINC001490207225    0.4000
     38 H38        -1.5416    1.5317   45.9859 H       1  ZINC001490207225    0.4200
     39 H39        -5.6852    3.4523   50.7431 H       1  ZINC001490207225    0.0900
     40 H40        -7.2626    2.7286   50.3027 H       1  ZINC001490207225    0.0800
     41 H41        -5.6000    4.0888   53.1176 H       1  ZINC001490207225    0.0700
     42 H42        -5.8332    2.8053   54.3288 H       1  ZINC001490207225    0.0600
     43 H43        -4.6074    2.6127   53.0526 H       1  ZINC001490207225    0.0600
     44 H44        -8.6139    3.0029   51.7646 H       1  ZINC001490207225    0.0800
     45 H45        -8.0530    3.7144   53.3046 H       1  ZINC001490207225    0.0900
     46 H46       -11.5457   -0.2570   53.4003 H       1  ZINC001490207225    0.2000
@<TRIPOS>BOND
     1     1     2    1
     2     1    26    1
     3     1    27    1
     4     1    28    1
     5     2    25    1
     6     2     3    1
     7     3     4    2
     8     3    29    1
     9     4     5    1
    10     4    24    1
    11     5     6    2
    12     5     7   am
    13     7    23    1
    14     7     8    1
    15     8     9    1
    16     8    30    1
    17     8    31    1
    18     9    10    1
    19     9    21    1
    20     9    11    1
    21    11    12    1
    22    11    32    1
    23    11    33    1
    24    12    13   am
    25    12    20    1
    26    13    14    2
    27    13    15    1
    28    15    16    1
    29    15    34    1
    30    15    35    1
    31    16    17   am
    32    16    36    1
    33    17    18   am
    34    17    19    2
    35    18    37    1
    36    18    38    1
    37    20    21    1
    38    20    39    1
    39    20    40    1
    40    21    22    1
    41    21    23    1
    42    22    41    1
    43    22    42    1
    44    22    43    1
    45    23    44    1
    46    23    45    1
    47    24    25    2
    48    24    46    1
@<TRIPOS>SUBSTRUCTURE
     1 ZINC001490207225        1 TEMP              0 ****  ****    0 ROOT


##########                                Name:    ZINC000751548479
##########                DOCK_Rotatable_Bonds:                   9
##########                         Heavy_Atoms:                  27
##########                    Molecular_Weight:             389.407
##########                DOCK_Rotatable_Bonds:                   9
##########                       Formal_Charge:           0.0199995
##########                     HBond_Acceptors:                   9
##########                        HBond_Donors:                   2
##########                         Heavy_Atoms:                  27
##########                          Grid_Score:          -30.761738
##########                     Grid_vdw_energy:          -28.403614
##########                      Grid_es_energy:           -2.358124
##########           Internal_energy_repulsive:            8.442698

@<TRIPOS>MOLECULE
ZINC000751548479
 43 44 1 0 0
SMALL
USER_CHARGES


@<TRIPOS>ATOM
      1 C1          4.4777    3.1343   53.1062 C.3     1  ZINC000751548479   -0.1600
      2 C2          3.1121    2.9110   52.4531 C.3     1  ZINC000751548479    0.0800
      3 O3          2.5246    4.1934   52.1091 O.3     1  ZINC000751548479   -0.3600
      4 C4          1.2703    4.1796   51.6196 C.2     1  ZINC000751548479    0.6500
      5 O5          0.7532    5.2131   51.2443 O.2     1  ZINC000751548479   -0.5400
      6 N6          0.5885    3.0193   51.5461 N.am    1  ZINC000751548479   -0.6500
      7 C7         -0.7124    3.0049   51.0385 C.ar    1  ZINC000751548479    0.2000
      8 C8         -1.7867    3.2843   51.8706 C.ar    1  ZINC000751548479   -0.1000
      9 C9         -3.0733    3.2704   51.3704 C.ar    1  ZINC000751548479   -0.1000
     10 C10        -3.3030    2.9766   50.0305 C.ar    1  ZINC000751548479    0.1300
     11 N11        -4.6108    2.9646   49.5329 N.am    1  ZINC000751548479   -1.0500
     12 S12        -5.6221    1.7037   49.8929 S.o2    1  ZINC000751548479    2.6800
     13 O13        -6.8996    2.0546   49.3791 O.2     1  ZINC000751548479   -0.9500
     14 O14        -4.9335    0.5180   49.5201 O.2     1  ZINC000751548479   -0.9400
     15 C15        -5.7880    1.6524   51.6464 C.2     1  ZINC000751548479   -0.7500
     16 C16        -6.9896    1.7303   52.2011 C.2     1  ZINC000751548479    0.0700
     17 C17        -7.1290    1.6855   53.6717 C.ar    1  ZINC000751548479   -0.1100
     18 C18        -6.2115    2.3550   54.4827 C.ar    1  ZINC000751548479   -0.0600
     19 C19        -6.3464    2.3103   55.8547 C.ar    1  ZINC000751548479   -0.1600
     20 C20        -7.3902    1.6019   56.4281 C.ar    1  ZINC000751548479    0.1200
     21 F21        -7.5176    1.5609   57.7724 F       1  ZINC000751548479   -0.1300
     22 C22        -8.3042    0.9358   55.6274 C.ar    1  ZINC000751548479   -0.1600
     23 C23        -8.1817    0.9783   54.2542 C.ar    1  ZINC000751548479   -0.0500
     24 C24        -2.2407    2.6965   49.1874 C.ar    1  ZINC000751548479   -0.0600
     25 C25        -0.9359    2.7134   49.6847 C.ar    1  ZINC000751548479   -0.0300
     26 C26         0.1678    2.4253   48.8190 C.1     1  ZINC000751548479    0.2500
     27 N27         1.0434    2.1967   48.1321 N.1     1  ZINC000751548479   -0.4000
     28 H28         4.3550    3.7318   54.0095 H       1  ZINC000751548479    0.0700
     29 H29         4.9187    2.1716   53.3644 H       1  ZINC000751548479    0.0900
     30 H30         5.1321    3.6586   52.4098 H       1  ZINC000751548479    0.0700
     31 H31         3.2348    2.3133   51.5499 H       1  ZINC000751548479    0.0800
     32 H32         2.4578    2.3866   53.1495 H       1  ZINC000751548479    0.0800
     33 H33         1.0013    2.1944   51.8458 H       1  ZINC000751548479    0.4200
     34 H34        -1.6161    3.5129   52.9123 H       1  ZINC000751548479    0.1600
     35 H35        -3.9059    3.4884   52.0229 H       1  ZINC000751548479    0.1700
     36 H36        -4.9250    3.6949   48.9771 H       1  ZINC000751548479    0.4300
     37 H37        -4.9109    1.5575   52.2692 H       1  ZINC000751548479    0.1700
     38 H38        -7.8667    1.8266   51.5782 H       1  ZINC000751548479    0.1500
     39 H39        -5.3972    2.9067   54.0368 H       1  ZINC000751548479    0.1400
     40 H40        -5.6369    2.8280   56.4832 H       1  ZINC000751548479    0.1400
     41 H41        -9.1162    0.3853   56.0792 H       1  ZINC000751548479    0.1400
     42 H42        -8.8946    0.4591   53.6310 H       1  ZINC000751548479    0.1400
     43 H43        -2.4207    2.4686   48.1472 H       1  ZINC000751548479    0.1500
@<TRIPOS>BOND
     1     1     2    1
     2     1    28    1
     3     1    29    1
     4     1    30    1
     5     2     3    1
     6     2    31    1
     7     2    32    1
     8     3     4    1
     9     4     5    2
    10     4     6   am
    11     6     7    1
    12     6    33    1
    13     7    25   ar
    14     7     8   ar
    15     8     9   ar
    16     8    34    1
    17     9    10   ar
    18     9    35    1
    19    10    11    1
    20    10    24   ar
    21    11    12   am
    22    11    36    1
    23    12    13    2
    24    12    14    2
    25    12    15    1
    26    15    16    2
    27    15    37    1
    28    16    17    1
    29    16    38    1
    30    17    23   ar
    31    17    18   ar
    32    18    19   ar
    33    18    39    1
    34    19    20   ar
    35    19    40    1
    36    20    21    1
    37    20    22   ar
    38    22    23   ar
    39    22    41    1
    40    23    42    1
    41    24    25   ar
    42    24    43    1
    43    25    26    1
    44    26    27    3
@<TRIPOS>SUBSTRUCTURE
     1 ZINC000751548479        1 TEMP              0 ****  ****    0 ROOT


##########                                Name:    ZINC001191386213
##########                DOCK_Rotatable_Bonds:                   6
##########                         Heavy_Atoms:                  29
##########                    Molecular_Weight:             392.433
##########                DOCK_Rotatable_Bonds:                   6
##########                       Formal_Charge:               -0.02
##########                     HBond_Acceptors:                   7
##########                        HBond_Donors:                   2
##########                         Heavy_Atoms:                  29
##########                          Grid_Score:          -30.708391
##########                     Grid_vdw_energy:          -29.462063
##########                      Grid_es_energy:           -1.246328
##########           Internal_energy_repulsive:            9.301582

@<TRIPOS>MOLECULE
ZINC001191386213
 50 53 1 0 0
SMALL
USER_CHARGES


@<TRIPOS>ATOM
      1 C1        -16.2033    0.1162   47.2773 C.3     1  ZINC001191386213   -0.1700
      2 C2        -15.4471   -0.1938   48.5434 C.2     1  ZINC001191386213    0.5100
      3 O3        -14.9654   -1.2946   48.7080 O.2     1  ZINC001191386213   -0.5200
      4 N4        -15.3060    0.7523   49.4930 N.am    1  ZINC001191386213   -0.6800
      5 C5        -14.6038    0.4644   50.6687 C.ar    1  ZINC001191386213    0.1400
      6 C6        -15.2291   -0.2241   51.7006 C.ar    1  ZINC001191386213   -0.1400
      7 C7        -14.5384   -0.5105   52.8631 C.ar    1  ZINC001191386213   -0.1000
      8 C8        -13.2238   -0.1137   53.0052 C.ar    1  ZINC001191386213   -0.1100
      9 C9        -12.5889    0.5778   51.9751 C.ar    1  ZINC001191386213    0.0100
     10 C10       -11.1752    1.0050   52.1266 C.2     1  ZINC001191386213    0.0700
     11 N11       -10.7589    2.1856   52.5335 N.2     1  ZINC001191386213   -0.2500
     12 N12        -9.4759    2.2344   52.5545 N.pl3   1  ZINC001191386213   -0.3800
     13 C13        -8.9587    1.0375   52.1450 C.2     1  ZINC001191386213   -0.0400
     14 C14        -7.5339    0.6864   52.0298 C.2     1  ZINC001191386213    0.6100
     15 O15        -7.1304   -0.3717   52.4739 O.2     1  ZINC001191386213   -0.5100
     16 N16        -6.6763    1.5373   51.4323 N.am    1  ZINC001191386213   -0.6200
     17 C17        -7.0276    2.8427   50.8545 C.3     1  ZINC001191386213    0.0800
     18 C18        -5.7355    3.4445   50.2626 C.3     1  ZINC001191386213   -0.1200
     19 C19        -4.8419    2.1962   50.0382 C.3     1  ZINC001191386213   -0.0600
     20 H20        -5.0903    1.7015   49.0993 H       1  ZINC001191386213    0.1000
     21 C21        -3.3809    2.5628   50.0823 C.ar    1  ZINC001191386213   -0.1100
     22 C22        -2.8468    3.1387   51.2191 C.ar    1  ZINC001191386213   -0.0900
     23 C23        -1.5063    3.4753   51.2598 C.ar    1  ZINC001191386213   -0.1300
     24 C24        -0.6991    3.2365   50.1635 C.ar    1  ZINC001191386213   -0.0900
     25 C25        -1.2312    2.6609   49.0251 C.ar    1  ZINC001191386213   -0.1500
     26 C26        -2.5717    2.3174   48.9855 C.ar    1  ZINC001191386213    0.1100
     27 F27        -3.0930    1.7548   47.8733 F       1  ZINC001191386213   -0.1400
     28 C28        -5.2295    1.3160   51.2554 C.3     1  ZINC001191386213    0.1200
     29 C29       -10.0372    0.2197   51.8670 C.2     1  ZINC001191386213   -0.1300
     30 C30       -13.2815    0.8613   50.8018 C.ar    1  ZINC001191386213   -0.1000
     31 H31       -16.2121   -0.7641   46.6346 H       1  ZINC001191386213    0.1000
     32 H32       -17.2274    0.3956   47.5250 H       1  ZINC001191386213    0.0900
     33 H33       -15.7174    0.9414   46.7567 H       1  ZINC001191386213    0.0900
     34 H34       -15.6912    1.6328   49.3613 H       1  ZINC001191386213    0.4100
     35 H35       -16.2576   -0.5359   51.5945 H       1  ZINC001191386213    0.1300
     36 H36       -15.0287   -1.0459   53.6626 H       1  ZINC001191386213    0.1300
     37 H37       -12.6874   -0.3389   53.9151 H       1  ZINC001191386213    0.1300
     38 H38        -8.9518    3.0060   52.8207 H       1  ZINC001191386213    0.4400
     39 H39        -7.7701    2.7121   50.0672 H       1  ZINC001191386213    0.0700
     40 H40        -7.4198    3.4987   51.6316 H       1  ZINC001191386213    0.0800
     41 H41        -5.9417    3.9461   49.3172 H       1  ZINC001191386213    0.0900
     42 H42        -5.2699    4.1299   50.9707 H       1  ZINC001191386213    0.0900
     43 H43        -3.4767    3.3264   52.0761 H       1  ZINC001191386213    0.1300
     44 H44        -1.0897    3.9253   52.1487 H       1  ZINC001191386213    0.1300
     45 H45         0.3477    3.5001   50.1962 H       1  ZINC001191386213    0.1300
     46 H46        -0.6005    2.4751   48.1683 H       1  ZINC001191386213    0.1400
     47 H47        -4.6808    1.6323   52.1425 H       1  ZINC001191386213    0.0800
     48 H48        -5.0333    0.2653   51.0416 H       1  ZINC001191386213    0.0900
     49 H49       -10.0120   -0.8022   51.5185 H       1  ZINC001191386213    0.1700
     50 H50       -12.7936    1.3969   50.0008 H       1  ZINC001191386213    0.1500
@<TRIPOS>BOND
     1     1     2    1
     2     1    31    1
     3     1    32    1
     4     1    33    1
     5     2     3    2
     6     2     4   am
     7     4     5    1
     8     4    34    1
     9     5    30   ar
    10     5     6   ar
    11     6     7   ar
    12     6    35    1
    13     7     8   ar
    14     7    36    1
    15     8     9   ar
    16     8    37    1
    17     9    10    1
    18     9    30   ar
    19    10    29    1
    20    10    11    2
    21    11    12    1
    22    12    13    1
    23    12    38    1
    24    13    14    1
    25    13    29    2
    26    14    15    2
    27    14    16   am
    28    16    28    1
    29    16    17    1
    30    17    18    1
    31    17    39    1
    32    17    40    1
    33    18    19    1
    34    18    41    1
    35    18    42    1
    36    19    20    1
    37    19    21    1
    38    19    28    1
    39    21    26   ar
    40    21    22   ar
    41    22    23   ar
    42    22    43    1
    43    23    24   ar
    44    23    44    1
    45    24    25   ar
    46    24    45    1
    47    25    26   ar
    48    25    46    1
    49    26    27    1
    50    28    47    1
    51    28    48    1
    52    29    49    1
    53    30    50    1
@<TRIPOS>SUBSTRUCTURE
     1 ZINC001191386213        1 TEMP              0 ****  ****    0 ROOT


##########                                Name:    ZINC000464752079
##########                DOCK_Rotatable_Bonds:                   7
##########                         Heavy_Atoms:                  29
##########                    Molecular_Weight:             404.413
##########                DOCK_Rotatable_Bonds:                   7
##########                       Formal_Charge:         7.45058e-08
##########                     HBond_Acceptors:                   8
##########                        HBond_Donors:                   1
##########                         Heavy_Atoms:                  29
##########                          Grid_Score:          -30.693380
##########                     Grid_vdw_energy:          -30.480095
##########                      Grid_es_energy:           -0.213285
##########           Internal_energy_repulsive:           16.367739

@<TRIPOS>MOLECULE
ZINC000464752079
 51 54 1 0 0
SMALL
USER_CHARGES


@<TRIPOS>ATOM
      1 C1          2.3262    0.4527   45.3531 C.3     1  ZINC000464752079   -0.1200
      2 C2          2.2563    1.9195   45.6920 C.ar    1  ZINC000464752079   -0.0800
      3 C3          2.5871    2.8652   44.7400 C.ar    1  ZINC000464752079   -0.1200
      4 C4          2.5230    4.2109   45.0509 C.ar    1  ZINC000464752079   -0.1200
      5 C5          2.1279    4.6104   46.3136 C.ar    1  ZINC000464752079   -0.1300
      6 C6          1.7961    3.6644   47.2657 C.ar    1  ZINC000464752079   -0.0900
      7 C7          1.8560    2.3192   46.9536 C.ar    1  ZINC000464752079   -0.0800
      8 C8          1.4945    1.2881   47.9914 C.3     1  ZINC000464752079    0.2000
      9 H9          1.0741    0.4066   47.5071 H       1  ZINC000464752079    0.0900
     10 C10         2.7487    0.8949   48.7999 C.3     1  ZINC000464752079   -0.1200
     11 C11         2.1976    0.7376   50.2417 C.3     1  ZINC000464752079   -0.1300
     12 C12         1.1221    1.8516   50.2868 C.3     1  ZINC000464752079    0.1000
     13 N13         0.5201    1.8512   48.9375 N.am    1  ZINC000464752079   -0.6300
     14 C14        -0.7139    2.2960   48.6277 C.2     1  ZINC000464752079    0.7200
     15 O15        -1.1074    2.2462   47.4784 O.2     1  ZINC000464752079   -0.5700
     16 N16        -1.5116    2.7962   49.5920 N.am    1  ZINC000464752079   -0.7400
     17 C17        -2.8536    3.2781   49.2556 C.3     1  ZINC000464752079    0.1900
     18 C18        -3.8567    2.6736   50.2041 C.ar    1  ZINC000464752079   -0.1200
     19 C19        -4.4073    1.4360   49.9296 C.ar    1  ZINC000464752079   -0.0500
     20 C20        -5.3300    0.8778   50.7991 C.ar    1  ZINC000464752079    0.0100
     21 C21        -5.7027    1.5652   51.9515 C.ar    1  ZINC000464752079    0.0800
     22 C22        -5.1486    2.8050   52.2251 C.ar    1  ZINC000464752079   -0.1800
     23 C23        -4.2221    3.3575   51.3541 C.ar    1  ZINC000464752079    0.1400
     24 O24        -3.6780    4.5744   51.6229 O.3     1  ZINC000464752079   -0.3100
     25 C25        -2.8874    4.6840   52.8082 C.3     1  ZINC000464752079    0.4100
     26 F26        -2.0169    3.5919   52.8907 F       1  ZINC000464752079   -0.2000
     27 F27        -2.1458    5.8694   52.7662 F       1  ZINC000464752079   -0.2000
     28 O28        -6.6142    0.8120   52.6334 O.3     1  ZINC000464752079   -0.3000
     29 C29        -7.1018   -0.1547   51.6842 C.3     1  ZINC000464752079    0.2100
     30 O30        -6.0088   -0.3069   50.7592 O.3     1  ZINC000464752079   -0.3000
     31 H31         1.3663    0.1262   44.9529 H       1  ZINC000464752079    0.0700
     32 H32         3.1051    0.2885   44.6085 H       1  ZINC000464752079    0.0700
     33 H33         2.5576   -0.1174   46.2529 H       1  ZINC000464752079    0.0700
     34 H34         2.8959    2.5531   43.7532 H       1  ZINC000464752079    0.1200
     35 H35         2.7822    4.9498   44.3071 H       1  ZINC000464752079    0.1200
     36 H36         2.0785    5.6615   46.5567 H       1  ZINC000464752079    0.1200
     37 H37         1.4877    3.9765   48.2525 H       1  ZINC000464752079    0.1100
     38 H38         3.1602   -0.0479   48.4393 H       1  ZINC000464752079    0.0900
     39 H39         3.4982    1.6852   48.7576 H       1  ZINC000464752079    0.0800
     40 H40         1.7482   -0.2453   50.3831 H       1  ZINC000464752079    0.0800
     41 H41         2.9785    0.9184   50.9804 H       1  ZINC000464752079    0.0900
     42 H42         0.3668    1.6195   51.0376 H       1  ZINC000464752079    0.0700
     43 H43         1.5837    2.8163   50.4973 H       1  ZINC000464752079    0.0700
     44 H44        -1.1972    2.8370   50.5088 H       1  ZINC000464752079    0.4000
     45 H45        -2.8815    4.3644   49.3411 H       1  ZINC000464752079    0.0800
     46 H46        -3.0985    2.9875   48.2340 H       1  ZINC000464752079    0.0800
     47 H47        -4.1180    0.9033   49.0357 H       1  ZINC000464752079    0.1500
     48 H48        -5.4361    3.3398   53.1183 H       1  ZINC000464752079    0.1500
     49 H49        -3.5406    4.6948   53.6808 H       1  ZINC000464752079    0.1900
     50 H50        -7.3195   -1.1013   52.1790 H       1  ZINC000464752079    0.1400
     51 H51        -7.9868    0.2236   51.1725 H       1  ZINC000464752079    0.0900
@<TRIPOS>BOND
     1     1     2    1
     2     1    31    1
     3     1    32    1
     4     1    33    1
     5     2     7   ar
     6     2     3   ar
     7     3     4   ar
     8     3    34    1
     9     4     5   ar
    10     4    35    1
    11     5     6   ar
    12     5    36    1
    13     6     7   ar
    14     6    37    1
    15     7     8    1
    16     8     9    1
    17     8    13    1
    18     8    10    1
    19    10    11    1
    20    10    38    1
    21    10    39    1
    22    11    12    1
    23    11    40    1
    24    11    41    1
    25    12    13    1
    26    12    42    1
    27    12    43    1
    28    13    14   am
    29    14    15    2
    30    14    16   am
    31    16    17    1
    32    16    44    1
    33    17    18    1
    34    17    45    1
    35    17    46    1
    36    18    23   ar
    37    18    19   ar
    38    19    20   ar
    39    19    47    1
    40    20    30    1
    41    20    21   ar
    42    21    22   ar
    43    21    28    1
    44    22    23   ar
    45    22    48    1
    46    23    24    1
    47    24    25    1
    48    25    26    1
    49    25    27    1
    50    25    49    1
    51    28    29    1
    52    29    30    1
    53    29    50    1
    54    29    51    1
@<TRIPOS>SUBSTRUCTURE
     1 ZINC000464752079        1 TEMP              0 ****  ****    0 ROOT


##########                                Name:    ZINC000542980334
##########                DOCK_Rotatable_Bonds:                   6
##########                         Heavy_Atoms:                  27
##########                    Molecular_Weight:             404.795
##########                DOCK_Rotatable_Bonds:                   6
##########                       Formal_Charge:           0.0300001
##########                     HBond_Acceptors:                  10
##########                        HBond_Donors:                   1
##########                         Heavy_Atoms:                  27
##########                          Grid_Score:          -30.687141
##########                     Grid_vdw_energy:          -28.580050
##########                      Grid_es_energy:           -2.107092
##########           Internal_energy_repulsive:           14.901582

@<TRIPOS>MOLECULE
ZINC000542980334
 44 46 1 0 0
SMALL
USER_CHARGES


@<TRIPOS>ATOM
      1 O1         -5.8920    1.3220   49.6514 O.2     1  ZINC000542980334   -0.5800
      2 C2         -5.7866    1.6096   50.8281 C.2     1  ZINC000542980334    0.7100
      3 N3         -4.9898    2.6295   51.2038 N.am    1  ZINC000542980334   -0.7400
      4 C4         -4.2460    3.3880   50.1950 C.3     1  ZINC000542980334    0.1800
      5 C5         -2.7683    3.2701   50.4662 C.ar    1  ZINC000542980334   -0.1400
      6 C6         -2.2338    3.7958   51.6297 C.ar    1  ZINC000542980334    0.1300
      7 F7         -3.0365    4.4149   52.5229 F       1  ZINC000542980334   -0.1200
      8 C8         -0.8758    3.6863   51.8781 C.ar    1  ZINC000542980334   -0.1500
      9 C9         -0.0552    3.0526   50.9646 C.ar    1  ZINC000542980334   -0.0700
     10 C10        -0.5890    2.5276   49.8025 C.ar    1  ZINC000542980334   -0.1200
     11 C11        -1.9463    2.6314   49.5552 C.ar    1  ZINC000542980334    0.0100
     12 Cl12       -2.6157    1.9713   48.0959 Cl      1  ZINC000542980334   -0.0400
     13 N13        -6.4709    0.9118   51.7562 N.am    1  ZINC000542980334   -0.6300
     14 C14        -7.3434   -0.2026   51.3621 C.3     1  ZINC000542980334    0.1100
     15 C15        -8.7384    0.0315   51.9503 C.3     1  ZINC000542980334   -0.1300
     16 C16        -8.6223    0.2344   53.4627 C.3     1  ZINC000542980334   -0.1300
     17 C17        -7.7640    1.4685   53.7492 C.3     1  ZINC000542980334    0.1400
     18 H18        -8.2149    2.3425   53.2790 H       1  ZINC000542980334    0.1100
     19 N19        -7.6801    1.6806   55.1964 N.pl3   1  ZINC000542980334   -0.3400
     20 C20        -6.6250    2.1929   55.8639 C.2     1  ZINC000542980334    0.0600
     21 C21        -6.9444    2.2243   57.1785 C.2     1  ZINC000542980334   -0.2300
     22 C22        -8.2390    1.7138   57.3191 C.2     1  ZINC000542980334   -0.0200
     23 C23        -8.9942    1.5652   58.6147 C.3     1  ZINC000542980334    0.5600
     24 F24        -8.0957    1.2782   59.6479 F       1  ZINC000542980334   -0.1700
     25 F25        -9.6686    2.7571   58.9008 F       1  ZINC000542980334   -0.1700
     26 F26        -9.9194    0.5223   58.4983 F       1  ZINC000542980334   -0.1600
     27 N27        -8.6832    1.3932   56.1310 N.2     1  ZINC000542980334   -0.2300
     28 C28        -6.3536    1.2471   53.1818 C.3     1  ZINC000542980334    0.1300
     29 H29        -4.9087    2.8614   52.1422 H       1  ZINC000542980334    0.4000
     30 H30        -4.4666    2.9892   49.2048 H       1  ZINC000542980334    0.0900
     31 H31        -4.5408    4.4365   50.2382 H       1  ZINC000542980334    0.0900
     32 H32        -0.4580    4.0965   52.7856 H       1  ZINC000542980334    0.1500
     33 H33         1.0039    2.9677   51.1585 H       1  ZINC000542980334    0.1500
     34 H34         0.0532    2.0329   49.0890 H       1  ZINC000542980334    0.1500
     35 H35        -7.4083   -0.2491   50.2750 H       1  ZINC000542980334    0.0800
     36 H36        -6.9372   -1.1384   51.7462 H       1  ZINC000542980334    0.0800
     37 H37        -9.1802    0.9189   51.4970 H       1  ZINC000542980334    0.0800
     38 H38        -9.3690   -0.8339   51.7466 H       1  ZINC000542980334    0.0900
     39 H39        -9.6162    0.3767   53.8874 H       1  ZINC000542980334    0.0800
     40 H40        -8.1579   -0.6433   53.9123 H       1  ZINC000542980334    0.0800
     41 H41        -5.6926    2.5190   55.4272 H       1  ZINC000542980334    0.1900
     42 H42        -6.3113    2.5801   57.9778 H       1  ZINC000542980334    0.1600
     43 H43        -5.8689    0.4301   53.7162 H       1  ZINC000542980334    0.0800
     44 H44        -5.7671    2.1589   53.2945 H       1  ZINC000542980334    0.1100
@<TRIPOS>BOND
     1     1     2    2
     2     2     3   am
     3     2    13   am
     4     3     4    1
     5     3    29    1
     6     4     5    1
     7     4    30    1
     8     4    31    1
     9     5    11   ar
    10     5     6   ar
    11     6     7    1
    12     6     8   ar
    13     8     9   ar
    14     8    32    1
    15     9    10   ar
    16     9    33    1
    17    10    11   ar
    18    10    34    1
    19    11    12    1
    20    13    28    1
    21    13    14    1
    22    14    15    1
    23    14    35    1
    24    14    36    1
    25    15    16    1
    26    15    37    1
    27    15    38    1
    28    16    17    1
    29    16    39    1
    30    16    40    1
    31    17    18    1
    32    17    19    1
    33    17    28    1
    34    19    27    1
    35    19    20    1
    36    20    21    2
    37    20    41    1
    38    21    22    1
    39    21    42    1
    40    22    23    1
    41    22    27    2
    42    23    24    1
    43    23    25    1
    44    23    26    1
    45    28    43    1
    46    28    44    1
@<TRIPOS>SUBSTRUCTURE
     1 ZINC000542980334        1 TEMP              0 ****  ****    0 ROOT


##########                                Name:    ZINC000893400114
##########                DOCK_Rotatable_Bonds:                   6
##########                         Heavy_Atoms:                  27
##########                    Molecular_Weight:             381.472
##########                DOCK_Rotatable_Bonds:                   6
##########                       Formal_Charge:           0.0300001
##########                     HBond_Acceptors:                   8
##########                        HBond_Donors:                   1
##########                         Heavy_Atoms:                  27
##########                          Grid_Score:          -30.676365
##########                     Grid_vdw_energy:          -30.170938
##########                      Grid_es_energy:           -0.505426
##########           Internal_energy_repulsive:           83.891548

@<TRIPOS>MOLECULE
ZINC000893400114
 58 61 1 0 0
SMALL
USER_CHARGES


@<TRIPOS>ATOM
      1 O1         -2.7774    2.1862   49.0295 O.2     1  ZINC000893400114   -0.5600
      2 C2         -2.8972    2.7948   50.0753 C.2     1  ZINC000893400114    0.7100
      3 N3         -4.0320    2.6832   50.7936 N.am    1  ZINC000893400114   -0.7300
      4 C4         -5.1236    1.8332   50.3115 C.3     1  ZINC000893400114    0.1400
      5 H5         -4.7309    1.0167   49.7056 H       1  ZINC000893400114    0.1200
      6 C6         -6.1415    2.6680   49.5003 C.3     1  ZINC000893400114   -0.1400
      7 C7         -7.1816    3.0345   50.5822 C.3     1  ZINC000893400114    0.1000
      8 N8         -7.0768    1.9813   51.5988 N.am    1  ZINC000893400114   -0.6200
      9 C9         -8.0937    1.7127   52.6187 C.3     1  ZINC000893400114    0.1600
     10 C10        -8.5666    0.2606   52.5008 C.3     1  ZINC000893400114   -0.1700
     11 C11        -9.5701   -0.0334   53.6190 C.3     1  ZINC000893400114    0.0700
     12 O12        -8.9579    0.2194   54.8852 O.3     1  ZINC000893400114   -0.3800
     13 C13        -8.5382    1.5727   55.0707 C.3     1  ZINC000893400114    0.0700
     14 C14        -7.4932    1.9312   54.0109 C.3     1  ZINC000893400114   -0.1700
     15 C15        -5.9260    1.2916   51.4739 C.2     1  ZINC000893400114    0.5100
     16 O16        -5.5854    0.3732   52.1892 O.2     1  ZINC000893400114   -0.4900
     17 N17        -1.8929    3.5767   50.5189 N.am    1  ZINC000893400114   -0.6300
     18 C18        -2.0126    4.3181   51.7843 C.3     1  ZINC000893400114    0.0800
     19 C19        -0.7671    4.0328   52.6313 C.3     1  ZINC000893400114    0.0500
     20 O20         0.4023    4.2928   51.8513 O.3     1  ZINC000893400114   -0.3800
     21 C21         0.5344    3.4579   50.6983 C.3     1  ZINC000893400114    0.0600
     22 C22        -0.6423    3.7094   49.7551 C.3     1  ZINC000893400114    0.1400
     23 H23        -0.5746    4.7166   49.3442 H       1  ZINC000893400114    0.0800
     24 C24        -0.6186    2.6862   48.6177 C.3     1  ZINC000893400114   -0.1200
     25 C25         0.7627    2.6870   47.9596 C.3     1  ZINC000893400114    0.0700
     26 H26         1.1780    3.6947   47.9732 H       1  ZINC000893400114    0.0800
     27 C27         0.6494    2.1869   46.5034 C.3     1  ZINC000893400114   -0.1500
     28 C28         1.9285    1.3191   46.3525 C.3     1  ZINC000893400114   -0.1600
     29 C29         2.0577    0.7346   47.7817 C.3     1  ZINC000893400114    0.0500
     30 O30         1.6350    1.7924   48.6599 O.3     1  ZINC000893400114   -0.3800
     31 H31        -4.1261    3.1655   51.6300 H       1  ZINC000893400114    0.4000
     32 H32        -5.6735    3.5629   49.0901 H       1  ZINC000893400114    0.1000
     33 H33        -6.5950    2.0697   48.7101 H       1  ZINC000893400114    0.1000
     34 H34        -6.9456    4.0049   51.0188 H       1  ZINC000893400114    0.0700
     35 H35        -8.1836    3.0466   50.1534 H       1  ZINC000893400114    0.0800
     36 H36        -8.9392    2.3857   52.4766 H       1  ZINC000893400114    0.0900
     37 H37        -9.0454    0.1109   51.5331 H       1  ZINC000893400114    0.0800
     38 H38        -7.7119   -0.4095   52.5930 H       1  ZINC000893400114    0.0900
     39 H39       -10.4428    0.6092   53.5025 H       1  ZINC000893400114    0.0500
     40 H40        -9.8778   -1.0777   53.5660 H       1  ZINC000893400114    0.1000
     41 H41        -9.3973    2.2363   54.9732 H       1  ZINC000893400114    0.0500
     42 H42        -8.1025    1.6854   56.0634 H       1  ZINC000893400114    0.1000
     43 H43        -6.6168    1.2948   54.1335 H       1  ZINC000893400114    0.0900
     44 H44        -7.2043    2.9761   54.1230 H       1  ZINC000893400114    0.0700
     45 H45        -2.0801    5.3864   51.5789 H       1  ZINC000893400114    0.0800
     46 H46        -2.9036    3.9896   52.3194 H       1  ZINC000893400114    0.0800
     47 H47        -0.7692    4.6774   53.5103 H       1  ZINC000893400114    0.1100
     48 H48        -0.7712    2.9888   52.9445 H       1  ZINC000893400114    0.0500
     49 H49         1.4686    3.6889   50.1865 H       1  ZINC000893400114    0.1300
     50 H50         0.5351    2.4118   51.0044 H       1  ZINC000893400114    0.0500
     51 H51        -0.8304    1.6943   49.0167 H       1  ZINC000893400114    0.0800
     52 H52        -1.3741    2.9488   47.8770 H       1  ZINC000893400114    0.1100
     53 H53        -0.2477    1.5822   46.3697 H       1  ZINC000893400114    0.0800
     54 H54         0.6629    3.0227   45.8040 H       1  ZINC000893400114    0.0800
     55 H55         1.7823    0.5285   45.6166 H       1  ZINC000893400114    0.0800
     56 H56         2.7926    1.9337   46.0999 H       1  ZINC000893400114    0.0800
     57 H57         1.4093   -0.1342   47.8952 H       1  ZINC000893400114    0.0600
     58 H58         3.0934    0.4642   47.9877 H       1  ZINC000893400114    0.0800
@<TRIPOS>BOND
     1     1     2    2
     2     2     3   am
     3     2    17   am
     4     3     4    1
     5     3    31    1
     6     4     5    1
     7     4    15    1
     8     4     6    1
     9     6     7    1
    10     6    32    1
    11     6    33    1
    12     7     8    1
    13     7    34    1
    14     7    35    1
    15     8     9    1
    16     8    15   am
    17     9    14    1
    18     9    10    1
    19     9    36    1
    20    10    11    1
    21    10    37    1
    22    10    38    1
    23    11    12    1
    24    11    39    1
    25    11    40    1
    26    12    13    1
    27    13    14    1
    28    13    41    1
    29    13    42    1
    30    14    43    1
    31    14    44    1
    32    15    16    2
    33    17    22    1
    34    17    18    1
    35    18    19    1
    36    18    45    1
    37    18    46    1
    38    19    20    1
    39    19    47    1
    40    19    48    1
    41    20    21    1
    42    21    22    1
    43    21    49    1
    44    21    50    1
    45    22    23    1
    46    22    24    1
    47    24    25    1
    48    24    51    1
    49    24    52    1
    50    25    26    1
    51    25    30    1
    52    25    27    1
    53    27    28    1
    54    27    53    1
    55    27    54    1
    56    28    29    1
    57    28    55    1
    58    28    56    1
    59    29    30    1
    60    29    57    1
    61    29    58    1
@<TRIPOS>SUBSTRUCTURE
     1 ZINC000893400114        1 TEMP              0 ****  ****    0 ROOT


##########                                Name:    ZINC000171059239
##########                DOCK_Rotatable_Bonds:                   8
##########                         Heavy_Atoms:                  25
##########                    Molecular_Weight:              333.39
##########                DOCK_Rotatable_Bonds:                   8
##########                       Formal_Charge:         1.10269e-06
##########                     HBond_Acceptors:                   5
##########                        HBond_Donors:                   4
##########                         Heavy_Atoms:                  25
##########                          Grid_Score:          -30.674950
##########                     Grid_vdw_energy:          -29.286806
##########                      Grid_es_energy:           -1.388143
##########           Internal_energy_repulsive:            8.608724

@<TRIPOS>MOLECULE
ZINC000171059239
 44 46 1 0 0
SMALL
USER_CHARGES


@<TRIPOS>ATOM
      1 N1        -10.8526    3.5937   51.4627 N.am    1  ZINC000171059239   -0.8500
      2 C2        -11.0186    2.3980   52.0619 C.2     1  ZINC000171059239    0.5600
      3 O3        -12.1038    2.0908   52.5151 O.2     1  ZINC000171059239   -0.5400
      4 C4         -9.8806    1.4602   52.1683 C.ar    1  ZINC000171059239   -0.1400
      5 C5        -10.0507    0.2186   52.7824 C.ar    1  ZINC000171059239   -0.0900
      6 C6         -8.9847   -0.6522   52.8780 C.ar    1  ZINC000171059239   -0.1200
      7 C7         -7.7492   -0.2965   52.3673 C.ar    1  ZINC000171059239   -0.0800
      8 C8         -7.5736    0.9333   51.7576 C.ar    1  ZINC000171059239   -0.0900
      9 C9         -6.2241    1.3125   51.2045 C.3     1  ZINC000171059239   -0.0900
     10 C10        -6.3564    1.6383   49.7154 C.3     1  ZINC000171059239    0.1400
     11 N11        -5.3278    2.6095   49.3348 N.am    1  ZINC000171059239   -0.7400
     12 C12        -4.0836    2.1894   49.0316 C.2     1  ZINC000171059239    0.7000
     13 O13        -3.8153    1.0042   49.0725 O.2     1  ZINC000171059239   -0.5700
     14 N14        -3.1367    3.0830   48.6830 N.am    1  ZINC000171059239   -0.6800
     15 C15        -1.8478    2.6477   48.3689 C.ar    1  ZINC000171059239    0.1700
     16 C16        -0.7800    2.8829   49.2607 C.ar    1  ZINC000171059239   -0.0600
     17 C17        -0.9812    3.5543   50.4768 C.ar    1  ZINC000171059239   -0.1100
     18 C18         0.0723    3.7637   51.3136 C.ar    1  ZINC000171059239   -0.1100
     19 C19         1.3510    3.3209   50.9808 C.ar    1  ZINC000171059239   -0.1200
     20 C20         1.5832    2.6665   49.8102 C.ar    1  ZINC000171059239   -0.1000
     21 C21         0.5196    2.4319   48.9215 C.ar    1  ZINC000171059239   -0.0400
     22 C22         0.7224    1.7592   47.7047 C.ar    1  ZINC000171059239   -0.1200
     23 C23        -0.3264    1.5454   46.8630 C.ar    1  ZINC000171059239   -0.0900
     24 C24        -1.6081    1.9795   47.1876 C.ar    1  ZINC000171059239   -0.1200
     25 C25        -8.6327    1.8105   51.6498 C.ar    1  ZINC000171059239   -0.0500
     26 H26       -11.5995    4.2086   51.3918 H       1  ZINC000171059239    0.4100
     27 H27        -9.9853    3.8410   51.1056 H       1  ZINC000171059239    0.4000
     28 H28       -11.0146   -0.0599   53.1822 H       1  ZINC000171059239    0.1300
     29 H29        -9.1149   -1.6133   53.3530 H       1  ZINC000171059239    0.1300
     30 H30        -6.9179   -0.9815   52.4450 H       1  ZINC000171059239    0.1300
     31 H31        -5.8461    2.1862   51.7355 H       1  ZINC000171059239    0.0800
     32 H32        -5.5316    0.4808   51.3342 H       1  ZINC000171059239    0.0800
     33 H33        -6.2294    0.7268   49.1313 H       1  ZINC000171059239    0.0700
     34 H34        -7.3430    2.0594   49.5220 H       1  ZINC000171059239    0.0700
     35 H35        -5.5421    3.5550   49.3009 H       1  ZINC000171059239    0.4000
     36 H36        -3.3508    4.0285   48.6503 H       1  ZINC000171059239    0.4100
     37 H37        -1.9668    3.9036   50.7473 H       1  ZINC000171059239    0.1200
     38 H38        -0.0853    4.2805   52.2487 H       1  ZINC000171059239    0.1200
     39 H39         2.1700    3.5001   51.6616 H       1  ZINC000171059239    0.1200
     40 H40         2.5796    2.3294   49.5652 H       1  ZINC000171059239    0.1300
     41 H41         1.7095    1.4122   47.4371 H       1  ZINC000171059239    0.1300
     42 H42        -0.1614    1.0274   45.9298 H       1  ZINC000171059239    0.1300
     43 H43        -2.4230    1.7971   46.5027 H       1  ZINC000171059239    0.1400
     44 H44        -8.4945    2.7699   51.1736 H       1  ZINC000171059239    0.1400
@<TRIPOS>BOND
     1     1     2   am
     2     1    26    1
     3     1    27    1
     4     2     3    2
     5     2     4    1
     6     4    25   ar
     7     4     5   ar
     8     5     6   ar
     9     5    28    1
    10     6     7   ar
    11     6    29    1
    12     7     8   ar
    13     7    30    1
    14     8     9    1
    15     8    25   ar
    16     9    10    1
    17     9    31    1
    18     9    32    1
    19    10    11    1
    20    10    33    1
    21    10    34    1
    22    11    12   am
    23    11    35    1
    24    12    13    2
    25    12    14   am
    26    14    15    1
    27    14    36    1
    28    15    24   ar
    29    15    16   ar
    30    16    21   ar
    31    16    17   ar
    32    17    18   ar
    33    17    37    1
    34    18    19   ar
    35    18    38    1
    36    19    20   ar
    37    19    39    1
    38    20    21   ar
    39    20    40    1
    40    21    22   ar
    41    22    23   ar
    42    22    41    1
    43    23    24   ar
    44    23    42    1
    45    24    43    1
    46    25    44    1
@<TRIPOS>SUBSTRUCTURE
     1 ZINC000171059239        1 TEMP              0 ****  ****    0 ROOT


##########                                Name:    ZINC000328606936
##########                DOCK_Rotatable_Bonds:                   6
##########                         Heavy_Atoms:                  23
##########                    Molecular_Weight:             338.428
##########                DOCK_Rotatable_Bonds:                   6
##########                       Formal_Charge:           0.0100001
##########                     HBond_Acceptors:                   7
##########                        HBond_Donors:                   2
##########                         Heavy_Atoms:                  23
##########                          Grid_Score:          -30.671820
##########                     Grid_vdw_energy:          -21.830772
##########                      Grid_es_energy:           -8.841047
##########           Internal_energy_repulsive:           12.737083

@<TRIPOS>MOLECULE
ZINC000328606936
 45 47 1 0 0
SMALL
USER_CHARGES


@<TRIPOS>ATOM
      1 C1         -0.0728    3.1481   57.9123 C.3     1  <0>        -0.0500
      2 N2         -0.1125    3.1523   56.4439 N.4     1  <0>        -0.3500
      3 H3         -0.1754    2.2036   56.1063 H       1  <0>         0.4200
      4 C4          1.1104    3.7774   55.9227 C.3     1  <0>        -0.0900
      5 C5          2.3157    3.0942   56.5156 C.2     1  <0>         0.4900
      6 O6          2.8405    3.5462   57.5190 O.co2   1  <0>        -0.6700
      7 O7          2.7660    2.0895   55.9920 O.co2   1  <0>        -0.6400
      8 C8         -1.2838    3.9129   55.9879 C.3     1  <0>         0.0100
      9 H9         -2.1958    3.4935   56.4128 H       1  <0>         0.1600
     10 C10        -1.3589    3.9093   54.4459 C.3     1  <0>         0.1000
     11 N11        -1.8474    5.2624   54.0922 N.am    1  <0>        -0.6200
     12 C12        -2.7306    5.5975   53.1310 C.2     1  <0>         0.6200
     13 O13        -3.0330    6.7643   52.9624 O.2     1  <0>        -0.5100
     14 C14        -3.3271    4.5568   52.2886 C.2     1  <0>        -0.2800
     15 C15        -4.4521    3.8500   52.5845 C.2     1  <0>        -0.0300
     16 C16        -4.8065    2.9233   51.6213 C.2     1  <0>        -0.1200
     17 C17        -3.9695    2.8884   50.5596 C.2     1  <0>        -0.1900
     18 C18        -4.1355    1.9626   49.3692 C.3     1  <0>        -0.0500
     19 C19        -5.1049    0.8406   49.7498 C.3     1  <0>        -0.1200
     20 C20        -6.3654    1.4576   50.3629 C.3     1  <0>        -0.1200
     21 C21        -6.0286    2.0224   51.7441 C.3     1  <0>        -0.0600
     22 S22        -2.7091    4.0273   50.7325 S.3     1  <0>         0.2000
     23 C23        -1.1447    6.1637   55.0350 C.3     1  <0>         0.0600
     24 C24        -1.1438    5.3988   56.3789 C.3     1  <0>         0.0800
     25 H25        -0.2056    5.5643   56.9084 H       1  <0>         0.1000
     26 O26        -2.2485    5.8114   57.1861 O.3     1  <0>        -0.5400
     27 H27        -0.0049    4.1730   58.2770 H       1  <0>         0.1100
     28 H28        -0.9802    2.6842   58.2990 H       1  <0>         0.1100
     29 H29         0.7963    2.5837   58.2505 H       1  <0>         0.1600
     30 H30         1.1345    3.6795   54.8374 H       1  <0>         0.1200
     31 H31         1.1221    4.8335   56.1926 H       1  <0>         0.1300
     32 H32        -0.3714    3.7377   54.0176 H       1  <0>         0.1000
     33 H33        -2.0607    3.1498   54.1013 H       1  <0>         0.1200
     34 H34        -5.0181    3.9996   53.4921 H       1  <0>         0.1500
     35 H35        -4.5373    2.5220   48.5244 H       1  <0>         0.0900
     36 H36        -3.1692    1.5354   49.1010 H       1  <0>         0.0800
     37 H37        -5.3731    0.2725   48.8590 H       1  <0>         0.0700
     38 H38        -4.6315    0.1804   50.4764 H       1  <0>         0.0700
     39 H39        -6.7282    2.2593   49.7196 H       1  <0>         0.0700
     40 H40        -7.1349    0.6919   50.4606 H       1  <0>         0.0700
     41 H41        -5.8125    1.2039   52.4308 H       1  <0>         0.0800
     42 H42        -6.8728    2.6019   52.1176 H       1  <0>         0.0800
     43 H43        -0.1238    6.3442   54.6988 H       1  <0>         0.1000
     44 H44        -1.6849    7.1051   55.1349 H       1  <0>         0.1000
     45 H45        -2.3349    5.3206   58.0149 H       1  <0>         0.4000
@<TRIPOS>BOND
     1     1     2    1
     2     1    27    1
     3     1    28    1
     4     1    29    1
     5     2     3    1
     6     2     4    1
     7     2     8    1
     8     4     5    1
     9     4    30    1
    10     4    31    1
    11     5     6   ar
    12     5     7   ar
    13     8     9    1
    14     8    24    1
    15     8    10    1
    16    10    11    1
    17    10    32    1
    18    10    33    1
    19    11    12   am
    20    11    23    1
    21    12    13    2
    22    12    14    1
    23    14    22    1
    24    14    15    2
    25    15    16    1
    26    15    34    1
    27    16    21    1
    28    16    17    2
    29    17    18    1
    30    17    22    1
    31    18    19    1
    32    18    35    1
    33    18    36    1
    34    19    20    1
    35    19    37    1
    36    19    38    1
    37    20    21    1
    38    20    39    1
    39    20    40    1
    40    21    41    1
    41    21    42    1
    42    23    24    1
    43    23    43    1
    44    23    44    1
    45    24    25    1
    46    24    26    1
    47    26    45    1
@<TRIPOS>SUBSTRUCTURE
     1 <0>         1 TEMP              0 ****  ****    0 ROOT


##########                                Name:    ZINC000442864105
##########                DOCK_Rotatable_Bonds:                   7
##########                         Heavy_Atoms:                  30
##########                    Molecular_Weight:              414.39
##########                DOCK_Rotatable_Bonds:                   7
##########                       Formal_Charge:           0.0200001
##########                     HBond_Acceptors:                  10
##########                        HBond_Donors:                   2
##########                         Heavy_Atoms:                  30
##########                          Grid_Score:          -30.666536
##########                     Grid_vdw_energy:          -30.919113
##########                      Grid_es_energy:            0.252576
##########           Internal_energy_repulsive:            4.942134

@<TRIPOS>MOLECULE
ZINC000442864105
 47 50 1 0 0
SMALL
USER_CHARGES


@<TRIPOS>ATOM
      1 C1         -8.3285    4.1663   50.3664 C.3     1  ZINC000442864105    0.0800
      2 N2         -7.2585    3.1656   50.3614 N.pl3   1  ZINC000442864105   -0.4900
      3 C3         -6.0828    3.2737   49.6664 C.2     1  ZINC000442864105    0.0300
      4 C4         -5.3247    2.1870   49.8784 C.2     1  ZINC000442864105   -0.1900
      5 C5         -6.0747    1.3106   50.7827 C.ar    1  ZINC000442864105   -0.1600
      6 C6         -5.8184    0.0638   51.3565 C.ar    1  ZINC000442864105   -0.0200
      7 C7         -6.7439   -0.5084   52.1816 C.ar    1  ZINC000442864105   -0.2100
      8 C8         -7.9450    0.1439   52.4561 C.ar    1  ZINC000442864105    0.2400
      9 N9         -8.8820   -0.4554   53.3029 N.pl3   1  ZINC000442864105   -0.7400
     10 C10        -9.3465    0.2520   54.4988 C.3     1  ZINC000442864105    0.1100
     11 C11       -10.1575   -0.6867   55.3544 C.2     1  ZINC000442864105    0.5100
     12 O12       -10.1043   -1.8829   55.1608 O.2     1  ZINC000442864105   -0.5100
     13 N13       -10.9419   -0.1971   56.3350 N.am    1  ZINC000442864105   -0.6600
     14 C14       -11.6952   -1.0690   57.1298 C.ar    1  ZINC000442864105    0.1600
     15 C15       -12.8575   -1.6373   56.6297 C.ar    1  ZINC000442864105   -0.0700
     16 C16       -13.5997   -2.4979   57.4163 C.ar    1  ZINC000442864105   -0.1600
     17 C17       -14.8621   -3.1142   56.8709 C.3     1  ZINC000442864105    0.5100
     18 F18       -15.8224   -3.1856   57.8857 F       1  ZINC000442864105   -0.1700
     19 F19       -15.3496   -2.3274   55.8219 F       1  ZINC000442864105   -0.1700
     20 F20       -14.5860   -4.4019   56.3987 F       1  ZINC000442864105   -0.1700
     21 C21       -13.1870   -2.7953   58.7022 C.ar    1  ZINC000442864105   -0.0600
     22 C22       -12.0305   -2.2332   59.2088 C.ar    1  ZINC000442864105   -0.1100
     23 C23       -11.2764   -1.3732   58.4247 C.ar    1  ZINC000442864105    0.1500
     24 N24       -10.1024   -0.8017   58.9367 N.pl3   1  ZINC000442864105   -0.3300
     25 C25        -8.8619   -1.3241   58.8878 C.2     1  ZINC000442864105    0.2800
     26 N26        -8.0456   -0.4859   59.4742 N.2     1  ZINC000442864105   -0.5300
     27 C27        -8.7230    0.5767   59.9074 C.2     1  ZINC000442864105    0.2300
     28 N28        -9.9851    0.4324   59.5971 N.2     1  ZINC000442864105   -0.3400
     29 C29        -8.2165    1.3807   51.8969 C.ar    1  ZINC000442864105   -0.2100
     30 C30        -7.2818    1.9786   51.0591 C.ar    1  ZINC000442864105    0.1500
     31 H31        -8.1555    4.8790   51.1727 H       1  ZINC000442864105    0.0700
     32 H32        -8.3382    4.6927   49.4121 H       1  ZINC000442864105    0.0800
     33 H33        -9.2878    3.6716   50.5184 H       1  ZINC000442864105    0.0800
     34 H34        -5.8070    4.1096   49.0406 H       1  ZINC000442864105    0.1700
     35 H35        -4.3472    1.9945   49.4613 H       1  ZINC000442864105    0.1400
     36 H36        -4.8901   -0.4474   51.1478 H       1  ZINC000442864105    0.1200
     37 H37        -6.5442   -1.4730   52.6243 H       1  ZINC000442864105    0.1200
     38 H38        -9.2247   -1.3395   53.0986 H       1  ZINC000442864105    0.4100
     39 H39        -8.4872    0.6099   55.0659 H       1  ZINC000442864105    0.1000
     40 H40        -9.9648    1.0993   54.2025 H       1  ZINC000442864105    0.1000
     41 H41       -10.9844    0.7595   56.4899 H       1  ZINC000442864105    0.4300
     42 H42       -13.1827   -1.4072   55.6259 H       1  ZINC000442864105    0.1700
     43 H43       -13.7704   -3.4687   59.3126 H       1  ZINC000442864105    0.1500
     44 H44       -11.7113   -2.4675   60.2136 H       1  ZINC000442864105    0.1500
     45 H45        -8.5887   -2.2697   58.4432 H       1  ZINC000442864105    0.2300
     46 H46        -8.2976    1.4225   60.4270 H       1  ZINC000442864105    0.2300
     47 H47        -9.1488    1.8809   52.1136 H       1  ZINC000442864105    0.1200
@<TRIPOS>BOND
     1     1     2    1
     2     1    31    1
     3     1    32    1
     4     1    33    1
     5     2    30    1
     6     2     3    1
     7     3     4    2
     8     3    34    1
     9     4     5    1
    10     4    35    1
    11     5    30   ar
    12     5     6   ar
    13     6     7   ar
    14     6    36    1
    15     7     8   ar
    16     7    37    1
    17     8     9    1
    18     8    29   ar
    19     9    10    1
    20     9    38    1
    21    10    11    1
    22    10    39    1
    23    10    40    1
    24    11    12    2
    25    11    13   am
    26    13    14    1
    27    13    41    1
    28    14    23   ar
    29    14    15   ar
    30    15    16   ar
    31    15    42    1
    32    16    17    1
    33    16    21   ar
    34    17    18    1
    35    17    19    1
    36    17    20    1
    37    21    22   ar
    38    21    43    1
    39    22    23   ar
    40    22    44    1
    41    23    24    1
    42    24    28    1
    43    24    25    1
    44    25    26    2
    45    25    45    1
    46    26    27    1
    47    27    28    2
    48    27    46    1
    49    29    30   ar
    50    29    47    1
@<TRIPOS>SUBSTRUCTURE
     1 ZINC000442864105        1 TEMP              0 ****  ****    0 ROOT


##########                                Name:    ZINC001085817863
##########                DOCK_Rotatable_Bonds:                   7
##########                         Heavy_Atoms:                  24
##########                    Molecular_Weight:             326.442
##########                DOCK_Rotatable_Bonds:                   7
##########                       Formal_Charge:           0.0299998
##########                     HBond_Acceptors:                   5
##########                        HBond_Donors:                   0
##########                         Heavy_Atoms:                  24
##########                          Grid_Score:          -30.660173
##########                     Grid_vdw_energy:          -30.314766
##########                      Grid_es_energy:           -0.345408
##########           Internal_energy_repulsive:           16.354256

@<TRIPOS>MOLECULE
ZINC001085817863
 50 52 1 0 0
SMALL
USER_CHARGES


@<TRIPOS>ATOM
      1 C1         -2.3491    4.6151   51.7848 C.3     1  ZINC001085817863   -0.1400
      2 C2         -2.4211    3.0944   51.6325 C.3     1  ZINC001085817863   -0.0700
      3 C3         -2.3641    2.7326   50.1707 C.2     1  ZINC001085817863    0.1100
      4 C4         -3.4420    2.5569   49.3474 C.2     1  ZINC001085817863   -0.2400
      5 C5         -4.8634    2.6832   49.7110 C.2     1  ZINC001085817863    0.6000
      6 O6         -5.3860    3.7807   49.7503 O.2     1  ZINC001085817863   -0.5300
      7 N7         -5.5853    1.5824   50.0003 N.am    1  ZINC001085817863   -0.6100
      8 C8         -4.9560    0.2603   49.9530 C.3     1  ZINC001085817863    0.0800
      9 C9         -6.9993    1.7080   50.3621 C.3     1  ZINC001085817863    0.1300
     10 C10        -7.3280    0.7224   51.4852 C.3     1  ZINC001085817863    0.0100
     11 H11        -7.4466   -0.3003   51.1271 H       1  ZINC001085817863    0.0800
     12 C12        -6.3927    0.8415   52.6967 C.3     1  ZINC001085817863   -0.1400
     13 C13        -7.6814    0.6065   53.4971 C.3     1  ZINC001085817863    0.0000
     14 N14        -8.4297    1.1710   52.3570 N.3     1  ZINC001085817863   -0.4400
     15 C15        -9.6543    0.4020   52.0984 C.3     1  ZINC001085817863    0.0700
     16 C16       -10.5516    0.4649   53.3075 C.ar    1  ZINC001085817863   -0.1300
     17 C17       -10.4283   -0.4711   54.3227 C.ar    1  ZINC001085817863   -0.0700
     18 C18       -11.2751   -0.3739   55.4164 C.ar    1  ZINC001085817863   -0.1700
     19 C19       -12.2071    0.6453   55.4581 C.ar    1  ZINC001085817863    0.1000
     20 N20       -12.2963    1.5185   54.4737 N.ar    1  ZINC001085817863   -0.4800
     21 C21       -11.5043    1.4600   53.4210 C.ar    1  ZINC001085817863    0.1200
     22 C22        -2.8961    2.2180   48.0287 C.2     1  ZINC001085817863   -0.1900
     23 C23        -1.5579    2.2172   48.1622 C.2     1  ZINC001085817863   -0.0200
     24 N24        -1.2431    2.5331   49.4517 N.pl3   1  ZINC001085817863   -0.4400
     25 C25         0.1193    2.6311   49.9810 C.3     1  ZINC001085817863    0.0600
     26 H26        -2.3904    4.8769   52.8421 H       1  ZINC001085817863    0.0600
     27 H27        -1.4154    4.9794   51.3565 H       1  ZINC001085817863    0.0500
     28 H28        -3.1904    5.0727   51.2641 H       1  ZINC001085817863    0.0600
     29 H29        -1.5799    2.6370   52.1531 H       1  ZINC001085817863    0.0600
     30 H30        -3.3550    2.7303   52.0608 H       1  ZINC001085817863    0.1100
     31 H31        -4.1125    0.2345   50.6429 H       1  ZINC001085817863    0.0700
     32 H32        -5.6835   -0.4989   50.2399 H       1  ZINC001085817863    0.0700
     33 H33        -4.6035    0.0617   48.9408 H       1  ZINC001085817863    0.0600
     34 H34        -7.1988    2.7246   50.7009 H       1  ZINC001085817863    0.0800
     35 H35        -7.6181    1.4870   49.4923 H       1  ZINC001085817863    0.1000
     36 H36        -5.6633    0.0356   52.7784 H       1  ZINC001085817863    0.0800
     37 H37        -5.9590    1.8326   52.8299 H       1  ZINC001085817863    0.1000
     38 H38        -7.8951   -0.4471   53.6765 H       1  ZINC001085817863    0.0700
     39 H39        -7.7467    1.2106   54.4020 H       1  ZINC001085817863    0.0800
     40 H40       -10.1737    0.8241   51.2381 H       1  ZINC001085817863    0.0900
     41 H41        -9.3946   -0.6364   51.8924 H       1  ZINC001085817863    0.0500
     42 H42        -9.6904   -1.2575   54.2629 H       1  ZINC001085817863    0.1300
     43 H43       -11.2072   -1.0861   56.2256 H       1  ZINC001085817863    0.1300
     44 H44       -12.8705    0.7278   56.3063 H       1  ZINC001085817863    0.1600
     45 H45       -11.6070    2.1928   52.6344 H       1  ZINC001085817863    0.1500
     46 H46        -3.4572    2.0102   47.1296 H       1  ZINC001085817863    0.1600
     47 H47        -0.8482    2.0052   47.3762 H       1  ZINC001085817863    0.1600
     48 H48         0.4830    3.6517   49.8615 H       1  ZINC001085817863    0.0800
     49 H49         0.1181    2.3674   51.0386 H       1  ZINC001085817863    0.0900
     50 H50         0.7706    1.9472   49.4367 H       1  ZINC001085817863    0.0900
@<TRIPOS>BOND
     1     1     2    1
     2     1    26    1
     3     1    27    1
     4     1    28    1
     5     2     3    1
     6     2    29    1
     7     2    30    1
     8     3    24    1
     9     3     4    2
    10     4     5    1
    11     4    22    1
    12     5     6    2
    13     5     7   am
    14     7     8    1
    15     7     9    1
    16     8    31    1
    17     8    32    1
    18     8    33    1
    19     9    10    1
    20     9    34    1
    21     9    35    1
    22    10    11    1
    23    10    14    1
    24    10    12    1
    25    12    13    1
    26    12    36    1
    27    12    37    1
    28    13    14    1
    29    13    38    1
    30    13    39    1
    31    14    15    1
    32    15    16    1
    33    15    40    1
    34    15    41    1
    35    16    21   ar
    36    16    17   ar
    37    17    18   ar
    38    17    42    1
    39    18    19   ar
    40    18    43    1
    41    19    20   ar
    42    19    44    1
    43    20    21   ar
    44    21    45    1
    45    22    23    2
    46    22    46    1
    47    23    24    1
    48    23    47    1
    49    24    25    1
    50    25    48    1
    51    25    49    1
    52    25    50    1
@<TRIPOS>SUBSTRUCTURE
     1 ZINC001085817863        1 TEMP              0 ****  ****    0 ROOT


##########                                Name:    ZINC000057429281
##########                DOCK_Rotatable_Bonds:                  10
##########                         Heavy_Atoms:                  23
##########                    Molecular_Weight:             331.295
##########                DOCK_Rotatable_Bonds:                  10
##########                       Formal_Charge:          -0.0100002
##########                     HBond_Acceptors:                   9
##########                        HBond_Donors:                   5
##########                         Heavy_Atoms:                  23
##########                          Grid_Score:          -30.653519
##########                     Grid_vdw_energy:          -28.141321
##########                      Grid_es_energy:           -2.512197
##########           Internal_energy_repulsive:           10.794192

@<TRIPOS>MOLECULE
ZINC000057429281
 39 39 1 0 0
SMALL
USER_CHARGES


@<TRIPOS>ATOM
      1 C1         -4.5824    3.7785   50.3253 C.3     1  ZINC000057429281   -0.1500
      2 C2         -4.3484    2.4639   49.5784 C.3     1  ZINC000057429281   -0.0400
      3 H3         -5.0460    2.3909   48.7440 H       1  ZINC000057429281    0.0900
      4 C4         -4.5698    1.2887   50.5326 C.3     1  ZINC000057429281   -0.1300
      5 C5         -6.0017    1.2864   51.0029 C.2     1  ZINC000057429281    0.5200
      6 O6         -6.9054    1.2759   50.1943 O.2     1  ZINC000057429281   -0.5300
      7 N7         -6.2777    1.2960   52.3220 N.am    1  ZINC000057429281   -0.7000
      8 C8         -7.6696    1.2955   52.7792 C.3     1  ZINC000057429281    0.1100
      9 C9         -8.3103   -0.0249   52.4369 C.2     1  ZINC000057429281    0.5200
     10 N10        -9.6156   -0.0746   52.1054 N.am    1  ZINC000057429281   -0.8500
     11 O11        -7.6513   -1.0427   52.4599 O.2     1  ZINC000057429281   -0.5100
     12 C12        -7.7082    1.5008   54.2716 C.2     1  ZINC000057429281    0.5300
     13 N13        -6.7325    2.2033   54.8807 N.am    1  ZINC000057429281   -0.8400
     14 O14        -8.6173    1.0338   54.9246 O.2     1  ZINC000057429281   -0.5100
     15 C15        -2.9352    2.4276   49.0562 C.ar    1  ZINC000057429281   -0.0500
     16 C16        -1.8736    2.6134   49.9218 C.ar    1  ZINC000057429281   -0.1200
     17 C17        -0.5772    2.5801   49.4428 C.ar    1  ZINC000057429281   -0.0700
     18 C18        -0.3426    2.3604   48.0983 C.ar    1  ZINC000057429281   -0.1900
     19 C19         1.0706    2.3244   47.5761 C.3     1  ZINC000057429281    0.5100
     20 F20         1.9308    1.8849   48.5880 F       1  ZINC000057429281   -0.1800
     21 F21         1.1436    1.4476   46.4884 F       1  ZINC000057429281   -0.1800
     22 F22         1.4492    3.6076   47.1668 F       1  ZINC000057429281   -0.1800
     23 C23        -1.4042    2.1732   47.2331 C.ar    1  ZINC000057429281   -0.0700
     24 C24        -2.7004    2.2027   47.7126 C.ar    1  ZINC000057429281   -0.1100
     25 H25        -4.4246    4.6158   49.6455 H       1  ZINC000057429281    0.0600
     26 H26        -5.6045    3.8048   50.7030 H       1  ZINC000057429281    0.0800
     27 H27        -3.8847    3.8515   51.1597 H       1  ZINC000057429281    0.0500
     28 H28        -4.3563    0.3542   50.0139 H       1  ZINC000057429281    0.1000
     29 H29        -3.9057    1.3877   51.3912 H       1  ZINC000057429281    0.1000
     30 H30        -5.5548    1.3032   52.9688 H       1  ZINC000057429281    0.4200
     31 H31        -8.2138    2.1017   52.2873 H       1  ZINC000057429281    0.1300
     32 H32       -10.0282   -0.9244   51.8850 H       1  ZINC000057429281    0.4000
     33 H33       -10.1427    0.7396   52.0872 H       1  ZINC000057429281    0.4100
     34 H34        -6.7574    2.3354   55.8414 H       1  ZINC000057429281    0.4000
     35 H35        -6.0055    2.5768   54.3584 H       1  ZINC000057429281    0.4100
     36 H36        -2.0568    2.7850   50.9722 H       1  ZINC000057429281    0.1400
     37 H37         0.2522    2.7259   50.1189 H       1  ZINC000057429281    0.1400
     38 H38        -1.2209    2.0011   46.1826 H       1  ZINC000057429281    0.1400
     39 H39        -3.5297    2.0564   47.0366 H       1  ZINC000057429281    0.1400
@<TRIPOS>BOND
     1     1     2    1
     2     1    25    1
     3     1    26    1
     4     1    27    1
     5     2     3    1
     6     2     4    1
     7     2    15    1
     8     4     5    1
     9     4    28    1
    10     4    29    1
    11     5     6    2
    12     5     7   am
    13     7     8    1
    14     7    30    1
    15     8     9    1
    16     8    12    1
    17     8    31    1
    18     9    10   am
    19     9    11    2
    20    10    32    1
    21    10    33    1
    22    12    13   am
    23    12    14    2
    24    13    34    1
    25    13    35    1
    26    15    24   ar
    27    15    16   ar
    28    16    17   ar
    29    16    36    1
    30    17    18   ar
    31    17    37    1
    32    18    19    1
    33    18    23   ar
    34    19    20    1
    35    19    21    1
    36    19    22    1
    37    23    24   ar
    38    23    38    1
    39    24    39    1
@<TRIPOS>SUBSTRUCTURE
     1 ZINC000057429281        1 TEMP              0 ****  ****    0 ROOT


##########                                Name:    ZINC001143596311
##########                DOCK_Rotatable_Bonds:                   9
##########                         Heavy_Atoms:                  21
##########                    Molecular_Weight:             335.811
##########                DOCK_Rotatable_Bonds:                   9
##########                       Formal_Charge:          0.00999959
##########                     HBond_Acceptors:                   9
##########                        HBond_Donors:                   3
##########                         Heavy_Atoms:                  21
##########                          Grid_Score:          -30.651291
##########                     Grid_vdw_energy:          -27.579622
##########                      Grid_es_energy:           -3.071668
##########           Internal_energy_repulsive:            9.994339

@<TRIPOS>MOLECULE
ZINC001143596311
 39 39 1 0 0
SMALL
USER_CHARGES


@<TRIPOS>ATOM
      1 C1         -7.7739    1.1469   59.5805 C.3     1  ZINC001143596311    0.0400
      2 O2         -7.5589    2.1394   58.5751 O.3     1  ZINC001143596311   -0.2600
      3 N3         -7.2812    1.5911   57.2474 N.3     1  ZINC001143596311   -0.3700
      4 C4         -8.4753    0.9473   56.6836 C.3     1  ZINC001143596311    0.0000
      5 C5         -6.7679    2.6307   56.3453 C.3     1  ZINC001143596311    0.0400
      6 C6         -5.5283    3.2778   56.9660 C.3     1  ZINC001143596311   -0.1300
      7 C7         -4.9780    4.3421   56.0144 C.3     1  ZINC001143596311    0.1200
      8 N8         -4.7183    3.7390   54.7048 N.am    1  ZINC001143596311   -0.7200
      9 C9         -4.6205    4.5200   53.6108 C.2     1  ZINC001143596311    0.5600
     10 O10        -4.7463    5.7249   53.7108 O.2     1  ZINC001143596311   -0.5200
     11 C11        -4.3602    3.9114   52.2894 C.ar    1  ZINC001143596311   -0.1500
     12 C12        -3.4123    4.4746   51.4331 C.ar    1  ZINC001143596311   -0.0200
     13 C13        -3.1737    3.9022   50.2012 C.ar    1  ZINC001143596311   -0.1300
     14 C14        -3.8725    2.7713   49.8130 C.ar    1  ZINC001143596311    0.0700
     15 Cl15       -3.5667    2.0565   48.2608 Cl      1  ZINC001143596311   -0.0200
     16 C16        -4.8143    2.2079   50.6585 C.ar    1  ZINC001143596311   -0.6800
     17 S17        -5.6980    0.7687   50.1559 S.o2    1  ZINC001143596311    2.7000
     18 N18        -6.5439    0.2282   51.4729 N.am    1  ZINC001143596311   -1.2500
     19 O19        -6.6643    1.2017   49.2083 O.2     1  ZINC001143596311   -0.9400
     20 O20        -4.7209   -0.2233   49.8719 O.2     1  ZINC001143596311   -0.9500
     21 C21        -5.0571    2.7676   51.8949 C.ar    1  ZINC001143596311    0.0500
     22 H22        -8.6271    0.5278   59.3033 H       1  ZINC001143596311    0.0400
     23 H23        -6.8854    0.5219   59.6700 H       1  ZINC001143596311    0.0500
     24 H24        -7.9732    1.6339   60.5351 H       1  ZINC001143596311    0.0900
     25 H25        -9.2772    1.6806   56.5982 H       1  ZINC001143596311    0.0400
     26 H26        -8.2410    0.5485   55.6966 H       1  ZINC001143596311    0.0900
     27 H27        -8.7933    0.1354   57.3375 H       1  ZINC001143596311    0.0800
     28 H28        -6.5029    2.1823   55.3878 H       1  ZINC001143596311    0.0500
     29 H29        -7.5353    3.3893   56.1913 H       1  ZINC001143596311    0.0900
     30 H30        -5.7974    3.7428   57.9144 H       1  ZINC001143596311    0.0800
     31 H31        -4.7680    2.5159   57.1377 H       1  ZINC001143596311    0.0800
     32 H32        -5.7072    5.1450   55.9065 H       1  ZINC001143596311    0.0800
     33 H33        -4.0500    4.7462   56.4189 H       1  ZINC001143596311    0.0800
     34 H34        -4.6167    2.7776   54.6252 H       1  ZINC001143596311    0.4000
     35 H35        -2.8673    5.3568   51.7345 H       1  ZINC001143596311    0.1500
     36 H36        -2.4407    4.3369   49.5378 H       1  ZINC001143596311    0.1600
     37 H37        -7.1007   -0.5629   51.4005 H       1  ZINC001143596311    0.4200
     38 H38        -6.4827    0.7025   52.3168 H       1  ZINC001143596311    0.4200
     39 H39        -5.7916    2.3275   52.5532 H       1  ZINC001143596311    0.1700
@<TRIPOS>BOND
     1     1     2    1
     2     1    22    1
     3     1    23    1
     4     1    24    1
     5     2     3    1
     6     3     4    1
     7     3     5    1
     8     4    25    1
     9     4    26    1
    10     4    27    1
    11     5     6    1
    12     5    28    1
    13     5    29    1
    14     6     7    1
    15     6    30    1
    16     6    31    1
    17     7     8    1
    18     7    32    1
    19     7    33    1
    20     8     9   am
    21     8    34    1
    22     9    10    2
    23     9    11    1
    24    11    21   ar
    25    11    12   ar
    26    12    13   ar
    27    12    35    1
    28    13    14   ar
    29    13    36    1
    30    14    15    1
    31    14    16   ar
    32    16    17    1
    33    16    21   ar
    34    17    18   am
    35    17    19    2
    36    17    20    2
    37    18    37    1
    38    18    38    1
    39    21    39    1
@<TRIPOS>SUBSTRUCTURE
     1 ZINC001143596311        1 TEMP              0 ****  ****    0 ROOT


##########                                Name:    ZINC001284642199
##########                DOCK_Rotatable_Bonds:                   8
##########                         Heavy_Atoms:                  25
##########                    Molecular_Weight:             346.516
##########                DOCK_Rotatable_Bonds:                   8
##########                       Formal_Charge:         -3.8743e-07
##########                     HBond_Acceptors:                   5
##########                        HBond_Donors:                   2
##########                         Heavy_Atoms:                  25
##########                          Grid_Score:          -30.633223
##########                     Grid_vdw_energy:          -29.185230
##########                      Grid_es_energy:           -1.447993
##########           Internal_energy_repulsive:           17.205248

@<TRIPOS>MOLECULE
ZINC001284642199
 59 60 1 0 0
SMALL
USER_CHARGES


@<TRIPOS>ATOM
      1 C1        -15.2776    0.8809   46.3583 C.3     1  ZINC001284642199   -0.1100
      2 C2        -14.7458    0.8681   47.7683 C.ar    1  ZINC001284642199   -0.1900
      3 C3        -14.0614    1.9600   48.2787 C.ar    1  ZINC001284642199    0.1500
      4 N4        -13.6092    1.9128   49.5214 N.ar    1  ZINC001284642199   -0.4900
      5 C5        -13.8029    0.8456   50.2703 C.ar    1  ZINC001284642199    0.3100
      6 C6        -13.2710    0.8329   51.6803 C.3     1  ZINC001284642199    0.1300
      7 N7        -12.1264    1.7482   51.7802 N.3     1  ZINC001284642199   -0.6800
      8 C8        -11.7045    1.9129   53.1776 C.3     1  ZINC001284642199    0.0500
      9 C9        -10.7111    0.8083   53.5440 C.3     1  ZINC001284642199    0.1600
     10 H10       -10.9428   -0.0920   52.9749 H       1  ZINC001284642199    0.1000
     11 N11        -9.3508    1.2500   53.2269 N.am    1  ZINC001284642199   -0.7200
     12 C12        -8.6530    0.6355   52.2512 C.2     1  ZINC001284642199    0.5200
     13 O13        -9.1517   -0.2822   51.6348 O.2     1  ZINC001284642199   -0.5300
     14 C14        -7.2530    1.0887   51.9262 C.3     1  ZINC001284642199   -0.1100
     15 H15        -6.6947    1.2353   52.8509 H       1  ZINC001284642199    0.0900
     16 C16        -6.5576    0.0252   51.0739 C.3     1  ZINC001284642199   -0.1000
     17 C17        -5.1363    0.4853   50.7439 C.3     1  ZINC001284642199   -0.1100
     18 C18        -5.1938    1.8030   49.9684 C.3     1  ZINC001284642199   -0.0900
     19 H19        -5.7521    1.6563   49.0438 H       1  ZINC001284642199    0.0700
     20 C20        -3.7724    2.2631   49.6385 C.3     1  ZINC001284642199   -0.1500
     21 C21        -5.8892    2.8664   50.8208 C.3     1  ZINC001284642199   -0.1100
     22 C22        -7.3105    2.4064   51.1507 C.3     1  ZINC001284642199   -0.1100
     23 C23       -10.8134    0.5063   55.0404 C.3     1  ZINC001284642199   -0.0800
     24 C24       -12.1209   -0.2364   55.3226 C.3     1  ZINC001284642199   -0.1400
     25 C25        -9.6299   -0.3646   55.4669 C.3     1  ZINC001284642199   -0.1400
     26 C26       -10.7915    1.8178   55.8280 C.3     1  ZINC001284642199   -0.1300
     27 N27       -14.4446   -0.2126   49.8172 N.ar    1  ZINC001284642199   -0.5100
     28 C28       -14.9296   -0.2357   48.5861 C.ar    1  ZINC001284642199    0.1500
     29 H29       -14.5202    0.4868   45.6808 H       1  ZINC001284642199    0.0800
     30 H30       -16.1729    0.2619   46.3021 H       1  ZINC001284642199    0.0700
     31 H31       -15.5242    1.9034   46.0723 H       1  ZINC001284642199    0.0700
     32 H32       -13.8990    2.8373   47.6702 H       1  ZINC001284642199    0.1700
     33 H33       -12.9525   -0.1768   51.9394 H       1  ZINC001284642199    0.1000
     34 H34       -14.0542    1.1543   52.3669 H       1  ZINC001284642199    0.0600
     35 H35       -12.3389    2.6402   51.3591 H       1  ZINC001284642199    0.3400
     36 H36       -12.5753    1.8494   53.8300 H       1  ZINC001284642199    0.0900
     37 H37       -11.2281    2.8854   53.3011 H       1  ZINC001284642199    0.0400
     38 H38        -8.9523    1.9848   53.7190 H       1  ZINC001284642199    0.3900
     39 H39        -7.1159   -0.1215   50.1492 H       1  ZINC001284642199    0.0700
     40 H40        -6.5166   -0.9135   51.6262 H       1  ZINC001284642199    0.0700
     41 H41        -4.6409   -0.2723   50.1367 H       1  ZINC001284642199    0.0700
     42 H42        -4.5779    0.6320   51.6685 H       1  ZINC001284642199    0.0600
     43 H43        -3.2771    1.5055   49.0312 H       1  ZINC001284642199    0.0500
     44 H44        -3.8134    3.2019   49.0860 H       1  ZINC001284642199    0.0500
     45 H45        -3.2142    2.4098   50.5631 H       1  ZINC001284642199    0.0500
     46 H46        -5.3309    3.0131   51.7454 H       1  ZINC001284642199    0.0600
     47 H47        -5.9302    3.8052   50.2684 H       1  ZINC001284642199    0.0700
     48 H48        -7.8688    2.2597   50.2261 H       1  ZINC001284642199    0.0700
     49 H49        -7.8059    3.1639   51.7580 H       1  ZINC001284642199    0.0600
     50 H50       -12.1365   -1.1707   54.7614 H       1  ZINC001284642199    0.0600
     51 H51       -12.1939   -0.4515   56.3886 H       1  ZINC001284642199    0.0600
     52 H52       -12.9641    0.3841   55.0187 H       1  ZINC001284642199    0.0500
     53 H53        -8.6984    0.1645   55.2660 H       1  ZINC001284642199    0.0600
     54 H54        -9.7028   -0.5798   56.5330 H       1  ZINC001284642199    0.0600
     55 H55        -9.6455   -1.2989   54.9058 H       1  ZINC001284642199    0.0600
     56 H56       -11.6346    2.4382   55.5242 H       1  ZINC001284642199    0.0500
     57 H57       -10.8644    1.6026   56.8941 H       1  ZINC001284642199    0.0500
     58 H58        -9.8600    2.3468   55.6271 H       1  ZINC001284642199    0.0600
     59 H59       -15.4578   -1.1046   48.2222 H       1  ZINC001284642199    0.1700
@<TRIPOS>BOND
     1     1     2    1
     2     1    29    1
     3     1    30    1
     4     1    31    1
     5     2    28   ar
     6     2     3   ar
     7     3     4   ar
     8     3    32    1
     9     4     5   ar
    10     5     6    1
    11     5    27   ar
    12     6     7    1
    13     6    33    1
    14     6    34    1
    15     7     8    1
    16     7    35    1
    17     8     9    1
    18     8    36    1
    19     8    37    1
    20     9    10    1
    21     9    11    1
    22     9    23    1
    23    11    12   am
    24    11    38    1
    25    12    13    2
    26    12    14    1
    27    14    15    1
    28    14    22    1
    29    14    16    1
    30    16    17    1
    31    16    39    1
    32    16    40    1
    33    17    18    1
    34    17    41    1
    35    17    42    1
    36    18    19    1
    37    18    20    1
    38    18    21    1
    39    20    43    1
    40    20    44    1
    41    20    45    1
    42    21    22    1
    43    21    46    1
    44    21    47    1
    45    22    48    1
    46    22    49    1
    47    23    24    1
    48    23    25    1
    49    23    26    1
    50    24    50    1
    51    24    51    1
    52    24    52    1
    53    25    53    1
    54    25    54    1
    55    25    55    1
    56    26    56    1
    57    26    57    1
    58    26    58    1
    59    27    28   ar
    60    28    59    1
@<TRIPOS>SUBSTRUCTURE
     1 ZINC001284642199        1 TEMP              0 ****  ****    0 ROOT


##########                                Name:    ZINC000763800048
##########                DOCK_Rotatable_Bonds:                   8
##########                         Heavy_Atoms:                  23
##########                    Molecular_Weight:             329.783
##########                DOCK_Rotatable_Bonds:                   8
##########                       Formal_Charge:           0.0199994
##########                     HBond_Acceptors:                   5
##########                        HBond_Donors:                   1
##########                         Heavy_Atoms:                  23
##########                          Grid_Score:          -30.625019
##########                     Grid_vdw_energy:          -28.926590
##########                      Grid_es_energy:           -1.698429
##########           Internal_energy_repulsive:           13.826298

@<TRIPOS>MOLECULE
ZINC000763800048
 39 40 1 0 0
SMALL
USER_CHARGES


@<TRIPOS>ATOM
      1 C1         -6.2814    3.6913   56.9627 C.3     1  ZINC000763800048    0.0400
      2 O2         -6.2245    2.3422   57.4967 O.3     1  ZINC000763800048   -0.3600
      3 C3         -7.2819    1.5492   57.2627 C.2     1  ZINC000763800048    0.4600
      4 O4         -7.3147    0.4337   57.7259 O.2     1  ZINC000763800048   -0.4900
      5 C5         -8.4280    2.0501   56.4222 C.3     1  ZINC000763800048   -0.0700
      6 C6         -8.3927    1.3787   55.0734 C.ar    1  ZINC000763800048   -0.0600
      7 C7         -9.5365    0.7925   54.5638 C.ar    1  ZINC000763800048   -0.1200
      8 C8         -9.5084    0.1753   53.3263 C.ar    1  ZINC000763800048   -0.1000
      9 C9         -8.3373    0.1432   52.5954 C.ar    1  ZINC000763800048   -0.1100
     10 C10        -7.1864    0.7318   53.1044 C.ar    1  ZINC000763800048    0.1500
     11 N11        -5.9989    0.7012   52.3670 N.am    1  ZINC000763800048   -0.6700
     12 C12        -5.9107    1.3754   51.2034 C.2     1  ZINC000763800048    0.5500
     13 O13        -6.8648    2.0110   50.7945 O.2     1  ZINC000763800048   -0.5200
     14 C14        -4.6678    1.3434   50.4315 C.2     1  ZINC000763800048   -0.2100
     15 C15        -4.0765    2.4964   50.0574 C.2     1  ZINC000763800048   -0.0100
     16 C16        -2.8258    2.4642   49.2827 C.ar    1  ZINC000763800048   -0.0800
     17 C17        -2.8538    2.1732   47.9149 C.ar    1  ZINC000763800048   -0.0900
     18 C18        -1.6784    2.1447   47.1956 C.ar    1  ZINC000763800048   -0.1100
     19 C19        -0.4711    2.4030   47.8244 C.ar    1  ZINC000763800048   -0.0200
     20 Cl20        1.0044    2.3643   46.9106 Cl      1  ZINC000763800048   -0.0600
     21 C21        -0.4358    2.6923   49.1789 C.ar    1  ZINC000763800048   -0.1100
     22 C22        -1.6040    2.7300   49.9095 C.ar    1  ZINC000763800048   -0.0800
     23 C23        -7.2193    1.3549   54.3452 C.ar    1  ZINC000763800048   -0.1300
     24 H24        -5.3665    4.2238   57.2226 H       1  ZINC000763800048    0.1000
     25 H25        -6.3813    3.6489   55.8781 H       1  ZINC000763800048    0.0600
     26 H26        -7.1388    4.2140   57.3865 H       1  ZINC000763800048    0.0600
     27 H27        -9.3706    1.8191   56.9184 H       1  ZINC000763800048    0.1200
     28 H28        -8.3399    3.1288   56.2934 H       1  ZINC000763800048    0.1200
     29 H29       -10.4537    0.8161   55.1333 H       1  ZINC000763800048    0.1200
     30 H30       -10.4034   -0.2824   52.9313 H       1  ZINC000763800048    0.1300
     31 H31        -8.3160   -0.3391   51.6294 H       1  ZINC000763800048    0.1400
     32 H32        -5.2386    0.1946   52.6928 H       1  ZINC000763800048    0.4100
     33 H33        -4.2241    0.3966   50.1615 H       1  ZINC000763800048    0.1300
     34 H34        -4.5209    3.4433   50.3263 H       1  ZINC000763800048    0.1400
     35 H35        -3.7941    1.9710   47.4236 H       1  ZINC000763800048    0.1400
     36 H36        -1.6985    1.9202   46.1394 H       1  ZINC000763800048    0.1400
     37 H37         0.5089    2.8927   49.6624 H       1  ZINC000763800048    0.1400
     38 H38        -1.5750    2.9560   50.9652 H       1  ZINC000763800048    0.1400
     39 H39        -6.3264    1.8137   54.7435 H       1  ZINC000763800048    0.1300
@<TRIPOS>BOND
     1     1     2    1
     2     1    24    1
     3     1    25    1
     4     1    26    1
     5     2     3    1
     6     3     4    2
     7     3     5    1
     8     5     6    1
     9     5    27    1
    10     5    28    1
    11     6    23   ar
    12     6     7   ar
    13     7     8   ar
    14     7    29    1
    15     8     9   ar
    16     8    30    1
    17     9    10   ar
    18     9    31    1
    19    10    11    1
    20    10    23   ar
    21    11    12   am
    22    11    32    1
    23    12    13    2
    24    12    14    1
    25    14    15    2
    26    14    33    1
    27    15    16    1
    28    15    34    1
    29    16    22   ar
    30    16    17   ar
    31    17    18   ar
    32    17    35    1
    33    18    19   ar
    34    18    36    1
    35    19    20    1
    36    19    21   ar
    37    21    22   ar
    38    21    37    1
    39    22    38    1
    40    23    39    1
@<TRIPOS>SUBSTRUCTURE
     1 ZINC000763800048        1 TEMP              0 ****  ****    0 ROOT


##########                                Name:    ZINC000469459940
##########                DOCK_Rotatable_Bonds:                   7
##########                         Heavy_Atoms:                  24
##########                    Molecular_Weight:             414.295
##########                DOCK_Rotatable_Bonds:                   7
##########                       Formal_Charge:          -0.0200002
##########                     HBond_Acceptors:                   6
##########                        HBond_Donors:                   1
##########                         Heavy_Atoms:                  24
##########                          Grid_Score:          -30.571486
##########                     Grid_vdw_energy:          -30.178991
##########                      Grid_es_energy:           -0.392495
##########           Internal_energy_repulsive:            6.351061

@<TRIPOS>MOLECULE
ZINC000469459940
 41 42 1 0 0
SMALL
USER_CHARGES


@<TRIPOS>ATOM
      1 C1          2.2328   -1.2194   50.4149 C.3     1  ZINC000469459940   -0.1600
      2 C2          2.8276    0.1662   50.1560 C.3     1  ZINC000469459940   -0.1200
      3 C3          1.8098    1.0257   49.4035 C.3     1  ZINC000469459940   -0.1200
      4 C4          2.3752    2.4342   49.2105 C.3     1  ZINC000469459940   -0.6000
      5 S5          1.2962    3.3711   48.0933 S.o2    1  ZINC000469459940    2.4900
      6 O6          1.4708    4.7680   48.2863 O.2     1  ZINC000469459940   -0.9300
      7 O7          1.3141    2.8038   46.7906 O.2     1  ZINC000469459940   -0.9300
      8 C8         -0.3327    3.0510   48.6841 C.ar    1  ZINC000469459940   -0.6400
      9 C9         -1.2597    2.4457   47.8543 C.ar    1  ZINC000469459940   -0.0300
     10 C10        -2.5369    2.1926   48.3104 C.ar    1  ZINC000469459940   -0.0800
     11 C11        -2.8928    2.5484   49.6125 C.ar    1  ZINC000469459940   -0.0900
     12 C12        -4.2592    2.2798   50.1082 C.2     1  ZINC000469459940    0.5600
     13 O13        -5.2123    2.4127   49.3653 O.2     1  ZINC000469459940   -0.5000
     14 N14        -4.4484    1.8878   51.3837 N.am    1  ZINC000469459940   -0.6700
     15 C15        -5.7416    1.6337   51.8528 C.ar    1  ZINC000469459940    0.1900
     16 C16        -6.3763    2.5550   52.6755 C.ar    1  ZINC000469459940   -0.1500
     17 C17        -7.6533    2.3026   53.1381 C.ar    1  ZINC000469459940   -0.0400
     18 C18        -8.3009    1.1333   52.7831 C.ar    1  ZINC000469459940   -0.1500
     19 Br19      -10.0490    0.7919   53.4185 Br      1  ZINC000469459940   -0.0200
     20 C20        -7.6706    0.2113   51.9622 C.ar    1  ZINC000469459940    0.1500
     21 F21        -8.3051   -0.9303   51.6168 F       1  ZINC000469459940   -0.1200
     22 C22        -6.3946    0.4625   51.4917 C.ar    1  ZINC000469459940   -0.1500
     23 C23        -1.9525    3.1583   50.4446 C.ar    1  ZINC000469459940   -0.1100
     24 C24        -0.6773    3.4011   49.9776 C.ar    1  ZINC000469459940   -0.0300
     25 H25         1.3274   -1.1201   51.0139 H       1  ZINC000469459940    0.0600
     26 H26         1.9890   -1.6936   49.4641 H       1  ZINC000469459940    0.0600
     27 H27         2.9578   -1.8318   50.9510 H       1  ZINC000469459940    0.0600
     28 H28         3.0712    0.6404   51.1067 H       1  ZINC000469459940    0.0700
     29 H29         3.7328    0.0668   49.5570 H       1  ZINC000469459940    0.0700
     30 H30         1.6064    0.5794   48.4300 H       1  ZINC000469459940    0.0800
     31 H31         0.8852    1.0809   49.9781 H       1  ZINC000469459940    0.0800
     32 H32         2.4270    2.9401   50.1746 H       1  ZINC000469459940    0.1400
     33 H33         3.3746    2.3688   48.7803 H       1  ZINC000469459940    0.1400
     34 H34        -0.9831    2.1710   46.8471 H       1  ZINC000469459940    0.1500
     35 H35        -3.2597    1.7208   47.6615 H       1  ZINC000469459940    0.1500
     36 H36        -3.6880    1.7819   51.9764 H       1  ZINC000469459940    0.4200
     37 H37        -5.8717    3.4682   52.9540 H       1  ZINC000469459940    0.1500
     38 H38        -8.1466    3.0194   53.7778 H       1  ZINC000469459940    0.1500
     39 H39        -5.9031   -0.2555   50.8519 H       1  ZINC000469459940    0.1600
     40 H40        -2.2217    3.4363   51.4528 H       1  ZINC000469459940    0.1400
     41 H41         0.0511    3.8730   50.6203 H       1  ZINC000469459940    0.1500
@<TRIPOS>BOND
     1     1     2    1
     2     1    25    1
     3     1    26    1
     4     1    27    1
     5     2     3    1
     6     2    28    1
     7     2    29    1
     8     3     4    1
     9     3    30    1
    10     3    31    1
    11     4     5    1
    12     4    32    1
    13     4    33    1
    14     5     6    2
    15     5     7    2
    16     5     8    1
    17     8    24   ar
    18     8     9   ar
    19     9    10   ar
    20     9    34    1
    21    10    11   ar
    22    10    35    1
    23    11    12    1
    24    11    23   ar
    25    12    13    2
    26    12    14   am
    27    14    15    1
    28    14    36    1
    29    15    22   ar
    30    15    16   ar
    31    16    17   ar
    32    16    37    1
    33    17    18   ar
    34    17    38    1
    35    18    19    1
    36    18    20   ar
    37    20    21    1
    38    20    22   ar
    39    22    39    1
    40    23    24   ar
    41    23    40    1
    42    24    41    1
@<TRIPOS>SUBSTRUCTURE
     1 ZINC000469459940        1 TEMP              0 ****  ****    0 ROOT


##########                                Name:    ZINC000898967786
##########                DOCK_Rotatable_Bonds:                   5
##########                         Heavy_Atoms:                  25
##########                    Molecular_Weight:             356.448
##########                DOCK_Rotatable_Bonds:                   5
##########                       Formal_Charge:        -2.38419e-07
##########                     HBond_Acceptors:                   7
##########                        HBond_Donors:                   1
##########                         Heavy_Atoms:                  25
##########                          Grid_Score:          -30.569151
##########                     Grid_vdw_energy:          -29.831026
##########                      Grid_es_energy:           -0.738125
##########           Internal_energy_repulsive:           11.736734

@<TRIPOS>MOLECULE
ZINC000898967786
 45 48 1 0 0
SMALL
USER_CHARGES


@<TRIPOS>ATOM
      1 C1         -8.8334   -0.4474   52.1161 C.3     1  ZINC000898967786   -0.0800
      2 C2         -7.7524    0.3124   51.3912 C.2     1  ZINC000898967786    0.0900
      3 C3         -7.6371    1.6574   51.3343 C.2     1  ZINC000898967786   -0.1000
      4 C4         -8.5576    2.6620   51.9779 C.3     1  ZINC000898967786    0.2200
      5 N5         -8.4713    2.5399   53.4353 N.am    1  ZINC000898967786   -0.7400
      6 C6         -7.7149    3.4044   54.1403 C.2     1  ZINC000898967786    0.7100
      7 O7         -7.1042    4.2855   53.5668 O.2     1  ZINC000898967786   -0.5800
      8 N8         -7.6355    3.2921   55.4810 N.am    1  ZINC000898967786   -0.6300
      9 C9         -6.8162    4.2239   56.2720 C.3     1  ZINC000898967786    0.0900
     10 C10        -5.9091    3.4047   57.1971 C.3     1  ZINC000898967786    0.0500
     11 O11        -6.7059    2.4757   57.9359 O.3     1  ZINC000898967786   -0.3700
     12 C12        -7.3832    1.5119   57.1259 C.3     1  ZINC000898967786    0.1400
     13 H13        -6.6554    0.9621   56.5291 H       1  ZINC000898967786    0.0700
     14 C14        -8.1373    0.5522   58.0098 C.2     1  ZINC000898967786   -0.1100
     15 C15        -7.7351    0.2468   59.2445 C.2     1  ZINC000898967786   -0.1800
     16 S16        -8.8594   -0.8979   59.9648 S.3     1  ZINC000898967786    0.1100
     17 C17        -9.8415   -0.8974   58.5056 C.2     1  ZINC000898967786   -0.2100
     18 C18        -9.3029   -0.0747   57.6043 C.2     1  ZINC000898967786   -0.1300
     19 C19        -8.3703    2.2376   56.1977 C.3     1  ZINC000898967786    0.0900
     20 N20        -6.5279    1.9365   50.5833 N.pl3   1  ZINC000898967786   -0.3500
     21 C21        -5.9417    3.1087   50.2025 C.2     1  ZINC000898967786    0.0600
     22 C22        -4.8266    3.1043   49.4425 C.2     1  ZINC000898967786   -0.1400
     23 C23        -4.2534    1.8893   49.0321 C.2     1  ZINC000898967786   -0.1000
     24 C24        -4.8274    0.7137   49.4046 C.2     1  ZINC000898967786   -0.0800
     25 C25        -5.9915    0.7350   50.1988 C.2     1  ZINC000898967786    0.2400
     26 N26        -6.7458   -0.2314   50.7030 N.2     1  ZINC000898967786   -0.4900
     27 H27        -8.5170   -0.6399   53.1413 H       1  ZINC000898967786    0.0800
     28 H28        -9.7498    0.1426   52.1232 H       1  ZINC000898967786    0.0700
     29 H29        -9.0149   -1.3945   51.6080 H       1  ZINC000898967786    0.0800
     30 H30        -8.2631    3.6682   51.6795 H       1  ZINC000898967786    0.1000
     31 H31        -9.5823    2.4733   51.6576 H       1  ZINC000898967786    0.0700
     32 H32        -8.9585    1.8369   53.8927 H       1  ZINC000898967786    0.4000
     33 H33        -6.2063    4.8333   55.6052 H       1  ZINC000898967786    0.1100
     34 H34        -7.4638    4.8669   56.8681 H       1  ZINC000898967786    0.0800
     35 H35        -5.1759    2.8617   56.6006 H       1  ZINC000898967786    0.0600
     36 H36        -5.3946    4.0729   57.8877 H       1  ZINC000898967786    0.1100
     37 H37        -6.8537    0.6417   59.7277 H       1  ZINC000898967786    0.1700
     38 H38       -10.7450   -1.4716   58.3630 H       1  ZINC000898967786    0.1700
     39 H39        -9.7387    0.0840   56.6291 H       1  ZINC000898967786    0.1400
     40 H40        -9.1731    2.6788   56.7885 H       1  ZINC000898967786    0.0800
     41 H41        -8.7875    1.5307   55.4805 H       1  ZINC000898967786    0.0900
     42 H42        -6.3746    4.0485   50.5121 H       1  ZINC000898967786    0.1600
     43 H43        -4.3729    4.0392   49.1482 H       1  ZINC000898967786    0.1500
     44 H44        -3.3614    1.8886   48.4232 H       1  ZINC000898967786    0.1500
     45 H45        -4.3957   -0.2265   49.0946 H       1  ZINC000898967786    0.1500
@<TRIPOS>BOND
     1     1     2    1
     2     1    27    1
     3     1    28    1
     4     1    29    1
     5     2    26    1
     6     2     3    2
     7     3     4    1
     8     3    20    1
     9     4     5    1
    10     4    30    1
    11     4    31    1
    12     5     6   am
    13     5    32    1
    14     6     7    2
    15     6     8   am
    16     8    19    1
    17     8     9    1
    18     9    10    1
    19     9    33    1
    20     9    34    1
    21    10    11    1
    22    10    35    1
    23    10    36    1
    24    11    12    1
    25    12    13    1
    26    12    14    1
    27    12    19    1
    28    14    18    1
    29    14    15    2
    30    15    16    1
    31    15    37    1
    32    16    17    1
    33    17    18    2
    34    17    38    1
    35    18    39    1
    36    19    40    1
    37    19    41    1
    38    20    25    1
    39    20    21    1
    40    21    22    2
    41    21    42    1
    42    22    23    1
    43    22    43    1
    44    23    24    2
    45    23    44    1
    46    24    25    1
    47    24    45    1
    48    25    26    2
@<TRIPOS>SUBSTRUCTURE
     1 ZINC000898967786        1 TEMP              0 ****  ****    0 ROOT


##########                                Name:    ZINC001122903793
##########                DOCK_Rotatable_Bonds:                   4
##########                         Heavy_Atoms:                  25
##########                    Molecular_Weight:             399.968
##########                DOCK_Rotatable_Bonds:                   4
##########                       Formal_Charge:           0.0100003
##########                     HBond_Acceptors:                   9
##########                        HBond_Donors:                   0
##########                         Heavy_Atoms:                  25
##########                          Grid_Score:          -30.568920
##########                     Grid_vdw_energy:          -29.556139
##########                      Grid_es_energy:           -1.012782
##########           Internal_energy_repulsive:           23.020720

@<TRIPOS>MOLECULE
ZINC001122903793
 47 50 1 0 0
SMALL
USER_CHARGES


@<TRIPOS>ATOM
      1 C1         -8.5144    0.0599   52.5248 C.3     1  ZINC001122903793   -0.1400
      2 C2         -7.8689    1.4174   52.2388 C.3     1  ZINC001122903793   -0.0400
      3 H3         -7.3930    1.7945   53.1440 H       1  ZINC001122903793    0.1000
      4 S4         -9.1400    2.5931   51.6814 S.3     1  ZINC001122903793   -0.2500
      5 C5         -8.1322    4.0096   51.1460 C.3     1  ZINC001122903793   -0.0800
      6 C6         -7.0516    3.5022   50.1851 C.3     1  ZINC001122903793    0.0700
      7 N7         -6.1746    2.5554   50.8776 N.3     1  ZINC001122903793   -0.4800
      8 C8         -4.9846    2.3860   50.1890 C.2     1  ZINC001122903793    0.3700
      9 N9         -4.8472    1.8800   48.9857 N.2     1  ZINC001122903793   -0.2900
     10 N10        -3.6072    1.8691   48.6488 N.2     1  ZINC001122903793   -0.2400
     11 C11        -2.8745    2.3689   49.6193 C.2     1  ZINC001122903793    0.2600
     12 C12        -1.4111    2.5278   49.6191 C.2     1  ZINC001122903793   -0.1600
     13 C13        -0.5876    2.3355   48.5614 C.2     1  ZINC001122903793    0.1600
     14 Cl14       -1.1602    1.8551   46.9946 Cl      1  ZINC001122903793    0.0300
     15 N15         0.6832    2.5441   48.8245 N.2     1  ZINC001122903793   -0.4600
     16 C16         0.9886    2.8986   50.0285 C.2     1  ZINC001122903793    0.0300
     17 S17        -0.4185    3.0098   50.9928 S.3     1  ZINC001122903793    0.2200
     18 N18        -3.7364    2.7200   50.6341 N.pl3   1  ZINC001122903793   -0.4600
     19 C19        -3.3874    3.3195   51.9246 C.3     1  ZINC001122903793    0.1100
     20 C20        -3.0375    4.7952   51.7233 C.3     1  ZINC001122903793    0.0700
     21 H21        -2.2139    4.8952   51.0165 H       1  ZINC001122903793    0.0800
     22 C22        -4.2765    5.5777   51.2197 C.3     1  ZINC001122903793   -0.1500
     23 C23        -3.9317    7.0147   51.6972 C.3     1  ZINC001122903793   -0.1500
     24 C24        -3.1815    6.7492   53.0203 C.3     1  ZINC001122903793    0.0500
     25 O25        -2.6933    5.4018   52.9791 O.3     1  ZINC001122903793   -0.3700
     26 C26        -6.8210    1.2659   51.1309 C.3     1  ZINC001122903793    0.1000
     27 H27        -7.3106    0.9211   50.2201 H       1  ZINC001122903793    0.0800
     28 C28        -5.7661    0.2438   51.5591 C.3     1  ZINC001122903793   -0.1500
     29 H29        -7.7495   -0.6444   52.8519 H       1  ZINC001122903793    0.0800
     30 H30        -9.2641    0.1720   53.3082 H       1  ZINC001122903793    0.0700
     31 H31        -8.9894   -0.3147   51.6182 H       1  ZINC001122903793    0.0700
     32 H32        -8.7641    4.7365   50.6357 H       1  ZINC001122903793    0.1200
     33 H33        -7.6625    4.4735   52.0133 H       1  ZINC001122903793    0.0900
     34 H34        -7.5245    3.0050   49.3382 H       1  ZINC001122903793    0.0700
     35 H35        -6.4621    4.3455   49.8253 H       1  ZINC001122903793    0.0900
     36 H36         1.9911    3.1005   50.3757 H       1  ZINC001122903793    0.2100
     37 H37        -4.2350    3.2364   52.6048 H       1  ZINC001122903793    0.1200
     38 H38        -2.5295    2.7970   52.3477 H       1  ZINC001122903793    0.1000
     39 H39        -4.3545    5.5329   50.1335 H       1  ZINC001122903793    0.0900
     40 H40        -5.1891    5.2150   51.6926 H       1  ZINC001122903793    0.0800
     41 H41        -3.2846    7.5175   50.9786 H       1  ZINC001122903793    0.0800
     42 H42        -4.8387    7.5926   51.8749 H       1  ZINC001122903793    0.0900
     43 H43        -2.3450    7.4414   53.1163 H       1  ZINC001122903793    0.0700
     44 H44        -3.8627    6.8712   53.8624 H       1  ZINC001122903793    0.0700
     45 H45        -5.2739    0.5890   52.4684 H       1  ZINC001122903793    0.0600
     46 H46        -6.2461   -0.7164   51.7480 H       1  ZINC001122903793    0.0800
     47 H47        -5.0268    0.1308   50.7662 H       1  ZINC001122903793    0.0600
@<TRIPOS>BOND
     1     1     2    1
     2     1    29    1
     3     1    30    1
     4     1    31    1
     5     2     3    1
     6     2    26    1
     7     2     4    1
     8     4     5    1
     9     5     6    1
    10     5    32    1
    11     5    33    1
    12     6     7    1
    13     6    34    1
    14     6    35    1
    15     7     8    1
    16     7    26    1
    17     8    18    1
    18     8     9    2
    19     9    10    1
    20    10    11    2
    21    11    12    1
    22    11    18    1
    23    12    17    1
    24    12    13    2
    25    13    14    1
    26    13    15    1
    27    15    16    2
    28    16    17    1
    29    16    36    1
    30    18    19    1
    31    19    20    1
    32    19    37    1
    33    19    38    1
    34    20    21    1
    35    20    25    1
    36    20    22    1
    37    22    23    1
    38    22    39    1
    39    22    40    1
    40    23    24    1
    41    23    41    1
    42    23    42    1
    43    24    25    1
    44    24    43    1
    45    24    44    1
    46    26    27    1
    47    26    28    1
    48    28    45    1
    49    28    46    1
    50    28    47    1
@<TRIPOS>SUBSTRUCTURE
     1 ZINC001122903793        1 TEMP              0 ****  ****    0 ROOT


##########                                Name:    ZINC000543625960
##########                DOCK_Rotatable_Bonds:                   8
##########                         Heavy_Atoms:                  29
##########                    Molecular_Weight:             416.544
##########                DOCK_Rotatable_Bonds:                   8
##########                       Formal_Charge:           -0.010001
##########                     HBond_Acceptors:                   8
##########                        HBond_Donors:                   2
##########                         Heavy_Atoms:                  29
##########                          Grid_Score:          -30.538145
##########                     Grid_vdw_energy:          -29.113707
##########                      Grid_es_energy:           -1.424439
##########           Internal_energy_repulsive:           16.979158

@<TRIPOS>MOLECULE
ZINC000543625960
 57 59 1 0 0
SMALL
USER_CHARGES


@<TRIPOS>ATOM
      1 C1         -9.4676   -0.2958   58.3319 C.3     1  ZINC000543625960   -0.1500
      2 C2         -8.0292    0.2257   58.3248 C.3     1  ZINC000543625960   -0.1300
      3 C3         -8.0113    1.6790   58.8030 C.3     1  ZINC000543625960    0.1500
      4 H4         -7.0078    2.0878   58.6854 H       1  ZINC000543625960    0.0800
      5 C5         -8.4154    1.7356   60.2776 C.3     1  ZINC000543625960   -0.1700
      6 N6         -8.9559    2.4667   58.0072 N.am    1  ZINC000543625960   -1.1100
      7 S7         -8.6482    4.0643   57.6990 S.o2    1  ZINC000543625960    2.7000
      8 O8         -9.6524    4.4988   56.7924 O.2     1  ZINC000543625960   -0.9600
      9 O9         -8.4203    4.6795   58.9595 O.2     1  ZINC000543625960   -0.9500
     10 C10        -7.1207    4.1418   56.8241 C.ar    1  ZINC000543625960   -0.6600
     11 C11        -6.0530    4.8386   57.3591 C.ar    1  ZINC000543625960   -0.0400
     12 C12        -4.8524    4.9019   56.6754 C.ar    1  ZINC000543625960   -0.1200
     13 C13        -4.7165    4.2688   55.4557 C.ar    1  ZINC000543625960   -0.0600
     14 C14        -5.7870    3.5676   54.9158 C.ar    1  ZINC000543625960    0.1500
     15 N15        -5.6525    2.9249   53.6800 N.am    1  ZINC000543625960   -0.6800
     16 C16        -5.5064    3.6521   52.5547 C.2     1  ZINC000543625960    0.7200
     17 O17        -5.4913    4.8665   52.6132 O.2     1  ZINC000543625960   -0.5600
     18 N18        -5.3769    3.0332   51.3644 N.am    1  ZINC000543625960   -0.6300
     19 C19        -5.2108    3.7029   50.0615 C.3     1  ZINC000543625960    0.0900
     20 C20        -4.5062    2.6550   49.1641 C.3     1  ZINC000543625960   -0.1000
     21 H21        -4.7139    2.8404   48.1103 H       1  ZINC000543625960    0.1000
     22 C22        -2.9992    2.6321   49.4274 C.3     1  ZINC000543625960   -0.1500
     23 C23        -5.1747    1.3379   49.6394 C.3     1  ZINC000543625960   -0.1200
     24 C24        -5.3715    1.5786   51.1510 C.3     1  ZINC000543625960    0.2000
     25 H25        -4.5549    1.1202   51.7087 H       1  ZINC000543625960    0.0900
     26 C26        -6.6873    0.9941   51.5960 C.ar    1  ZINC000543625960   -0.1400
     27 C27        -7.8813    1.6029   51.2421 C.ar    1  ZINC000543625960   -0.0600
     28 C28        -9.0678    1.0293   51.6737 C.ar    1  ZINC000543625960   -0.1700
     29 C29        -9.0210   -0.1217   52.4368 C.ar    1  ZINC000543625960    0.1000
     30 N30        -7.8661   -0.6737   52.7546 N.ar    1  ZINC000543625960   -0.4800
     31 C31        -6.7189   -0.1591   52.3574 C.ar    1  ZINC000543625960    0.1200
     32 C32        -6.9893    3.5017   55.6071 C.ar    1  ZINC000543625960   -0.0500
     33 H33        -9.4803   -1.3311   57.9911 H       1  ZINC000543625960    0.0600
     34 H34        -9.8688   -0.2414   59.3439 H       1  ZINC000543625960    0.0600
     35 H35       -10.0783    0.3135   57.6656 H       1  ZINC000543625960    0.0500
     36 H36        -7.4185   -0.3837   58.9910 H       1  ZINC000543625960    0.0700
     37 H37        -7.6279    0.1713   57.3128 H       1  ZINC000543625960    0.0800
     38 H38        -7.7125    1.1496   60.8697 H       1  ZINC000543625960    0.0700
     39 H39        -8.4026    2.7709   60.6183 H       1  ZINC000543625960    0.0700
     40 H40        -9.4189    1.3267   60.3953 H       1  ZINC000543625960    0.0600
     41 H41        -9.7618    2.0524   57.6609 H       1  ZINC000543625960    0.4200
     42 H42        -6.1569    5.3350   58.3126 H       1  ZINC000543625960    0.1400
     43 H43        -4.0205    5.4473   57.0958 H       1  ZINC000543625960    0.1400
     44 H44        -3.7790    4.3191   54.9220 H       1  ZINC000543625960    0.1400
     45 H45        -5.6644    1.9562   53.6332 H       1  ZINC000543625960    0.4100
     46 H46        -6.1824    3.9676   49.6445 H       1  ZINC000543625960    0.0700
     47 H47        -4.5880    4.5911   50.1682 H       1  ZINC000543625960    0.0800
     48 H48        -2.8172    2.4029   50.4773 H       1  ZINC000543625960    0.0600
     49 H49        -2.5328    1.8701   48.8028 H       1  ZINC000543625960    0.0600
     50 H50        -2.5739    3.6071   49.1893 H       1  ZINC000543625960    0.0600
     51 H51        -6.1326    1.1899   49.1409 H       1  ZINC000543625960    0.0800
     52 H52        -4.5147    0.4873   49.4694 H       1  ZINC000543625960    0.0900
     53 H53        -7.8874    2.5026   50.6448 H       1  ZINC000543625960    0.1300
     54 H54       -10.0167    1.4769   51.4170 H       1  ZINC000543625960    0.1400
     55 H55        -9.9405   -0.5744   52.7771 H       1  ZINC000543625960    0.1600
     56 H56        -5.7930   -0.6394   52.6375 H       1  ZINC000543625960    0.1400
     57 H57        -7.8237    2.9572   55.1899 H       1  ZINC000543625960    0.1400
@<TRIPOS>BOND
     1     1     2    1
     2     1    33    1
     3     1    34    1
     4     1    35    1
     5     2     3    1
     6     2    36    1
     7     2    37    1
     8     3     4    1
     9     3     5    1
    10     3     6    1
    11     5    38    1
    12     5    39    1
    13     5    40    1
    14     6     7   am
    15     6    41    1
    16     7     8    2
    17     7     9    2
    18     7    10    1
    19    10    32   ar
    20    10    11   ar
    21    11    12   ar
    22    11    42    1
    23    12    13   ar
    24    12    43    1
    25    13    14   ar
    26    13    44    1
    27    14    15    1
    28    14    32   ar
    29    15    16   am
    30    15    45    1
    31    16    17    2
    32    16    18   am
    33    18    24    1
    34    18    19    1
    35    19    20    1
    36    19    46    1
    37    19    47    1
    38    20    21    1
    39    20    22    1
    40    20    23    1
    41    22    48    1
    42    22    49    1
    43    22    50    1
    44    23    24    1
    45    23    51    1
    46    23    52    1
    47    24    25    1
    48    24    26    1
    49    26    31   ar
    50    26    27   ar
    51    27    28   ar
    52    27    53    1
    53    28    29   ar
    54    28    54    1
    55    29    30   ar
    56    29    55    1
    57    30    31   ar
    58    31    56    1
    59    32    57    1
@<TRIPOS>SUBSTRUCTURE
     1 ZINC000543625960        1 TEMP              0 ****  ****    0 ROOT


##########                                Name:    ZINC001077846158
##########                DOCK_Rotatable_Bonds:                   7
##########                         Heavy_Atoms:                  24
##########                    Molecular_Weight:             350.442
##########                DOCK_Rotatable_Bonds:                   7
##########                       Formal_Charge:          -0.0600002
##########                     HBond_Acceptors:                   8
##########                        HBond_Donors:                   2
##########                         Heavy_Atoms:                  24
##########                          Grid_Score:          -30.531271
##########                     Grid_vdw_energy:          -29.157576
##########                      Grid_es_energy:           -1.373695
##########           Internal_energy_repulsive:            6.641478

@<TRIPOS>MOLECULE
ZINC001077846158
 46 48 1 0 0
SMALL
USER_CHARGES


@<TRIPOS>ATOM
      1 C1         -6.8105    3.6663   49.7637 C.3     1  ZINC001077846158   -0.0700
      2 C2         -6.1790    2.2980   49.7566 C.2     1  ZINC001077846158    0.0100
      3 C3         -4.8972    2.0179   49.4681 C.2     1  ZINC001077846158   -0.0500
      4 C4         -3.8267    3.0100   49.0929 C.3     1  ZINC001077846158    0.1300
      5 N5         -2.6788    2.8568   49.9967 N.3     1  ZINC001077846158   -0.5100
      6 C6         -1.3982    2.9322   49.2480 C.3     1  ZINC001077846158    0.0000
      7 C7         -0.3646    3.2821   50.3480 C.3     1  ZINC001077846158    0.1000
      8 H8         -0.0692    2.3887   50.8981 H       1  ZINC001077846158    0.0800
      9 O9          0.7785    3.9258   49.7814 O.3     1  ZINC001077846158   -0.5600
     10 C10        -1.1472    4.2532   51.2615 C.3     1  ZINC001077846158    0.1400
     11 H11        -0.9144    5.2862   51.0033 H       1  ZINC001077846158    0.1100
     12 N12        -0.8276    3.9971   52.6681 N.am    1  ZINC001077846158   -0.7000
     13 C13        -1.0680    4.9437   53.5969 C.2     1  ZINC001077846158    0.6000
     14 O14        -1.5492    6.0110   53.2671 O.2     1  ZINC001077846158   -0.5300
     15 C15        -0.7484    4.6857   55.0111 C.2     1  ZINC001077846158    0.0100
     16 C16        -1.0557    5.5465   56.0074 C.2     1  ZINC001077846158   -0.2300
     17 S17        -0.5224    4.8862   57.4912 S.3     1  ZINC001077846158    0.2300
     18 C18         0.0796    3.4997   56.6965 C.2     1  ZINC001077846158    0.0300
     19 C19         0.7594    2.3437   57.3840 C.3     1  ZINC001077846158   -0.0200
     20 C20         2.2768    2.5069   57.2759 C.3     1  ZINC001077846158   -0.1500
     21 C21         0.3529    2.3168   58.8587 C.3     1  ZINC001077846158   -0.1500
     22 N22        -0.1329    3.5768   55.4300 N.2     1  ZINC001077846158   -0.4500
     23 C23        -2.6327    3.9553   50.9860 C.3     1  ZINC001077846158    0.0300
     24 O24        -4.7488    0.6831   49.5775 O.3     1  ZINC001077846158   -0.2100
     25 C25        -5.9341    0.1677   49.9294 C.2     1  ZINC001077846158    0.1800
     26 N26        -6.7956    1.1379   50.0436 N.2     1  ZINC001077846158   -0.4900
     27 H27        -6.7113    4.1071   50.7556 H       1  ZINC001077846158    0.0800
     28 H28        -6.3102    4.3012   49.0324 H       1  ZINC001077846158    0.0700
     29 H29        -7.8666    3.5804   49.5082 H       1  ZINC001077846158    0.0700
     30 H30        -3.5076    2.8295   48.0665 H       1  ZINC001077846158    0.0600
     31 H31        -4.2232    4.0218   49.1776 H       1  ZINC001077846158    0.1100
     32 H32        -1.1628    1.9713   48.7907 H       1  ZINC001077846158    0.0900
     33 H33        -1.4389    3.7185   48.4944 H       1  ZINC001077846158    0.0600
     34 H34         1.5159    3.3278   49.5977 H       1  ZINC001077846158    0.3900
     35 H35        -0.4429    3.1464   52.9310 H       1  ZINC001077846158    0.4100
     36 H36        -1.5560    6.4959   55.8857 H       1  ZINC001077846158    0.1900
     37 H37         0.4596    1.4103   56.9073 H       1  ZINC001077846158    0.1000
     38 H38         2.5664    2.5260   56.2253 H       1  ZINC001077846158    0.0600
     39 H39         2.5767    3.4403   57.7525 H       1  ZINC001077846158    0.0600
     40 H40         2.7685    1.6707   57.7732 H       1  ZINC001077846158    0.0700
     41 H41        -0.7280    2.2005   58.9356 H       1  ZINC001077846158    0.0600
     42 H42         0.8447    1.4806   59.3559 H       1  ZINC001077846158    0.0700
     43 H43         0.6528    3.2501   59.3353 H       1  ZINC001077846158    0.0600
     44 H44        -3.1201    4.8415   50.5798 H       1  ZINC001077846158    0.0600
     45 H45        -3.1266    3.6461   51.9073 H       1  ZINC001077846158    0.0900
     46 H46        -6.1404   -0.8794   50.0953 H       1  ZINC001077846158    0.2500
@<TRIPOS>BOND
     1     1     2    1
     2     1    27    1
     3     1    28    1
     4     1    29    1
     5     2    26    1
     6     2     3    2
     7     3     4    1
     8     3    24    1
     9     4     5    1
    10     4    30    1
    11     4    31    1
    12     5    23    1
    13     5     6    1
    14     6     7    1
    15     6    32    1
    16     6    33    1
    17     7     8    1
    18     7     9    1
    19     7    10    1
    20     9    34    1
    21    10    11    1
    22    10    12    1
    23    10    23    1
    24    12    13   am
    25    12    35    1
    26    13    14    2
    27    13    15    1
    28    15    22    1
    29    15    16    2
    30    16    17    1
    31    16    36    1
    32    17    18    1
    33    18    19    1
    34    18    22    2
    35    19    20    1
    36    19    21    1
    37    19    37    1
    38    20    38    1
    39    20    39    1
    40    20    40    1
    41    21    41    1
    42    21    42    1
    43    21    43    1
    44    23    44    1
    45    23    45    1
    46    24    25    1
    47    25    26    2
    48    25    46    1
@<TRIPOS>SUBSTRUCTURE
     1 ZINC001077846158        1 TEMP              0 ****  ****    0 ROOT


##########                                Name:    ZINC000588570917
##########                DOCK_Rotatable_Bonds:                   7
##########                         Heavy_Atoms:                  25
##########                    Molecular_Weight:             366.481
##########                DOCK_Rotatable_Bonds:                   7
##########                       Formal_Charge:          -0.0100006
##########                     HBond_Acceptors:                   7
##########                        HBond_Donors:                   1
##########                         Heavy_Atoms:                  25
##########                          Grid_Score:          -30.520435
##########                     Grid_vdw_energy:          -30.687803
##########                      Grid_es_energy:            0.167367
##########           Internal_energy_repulsive:           15.173737

@<TRIPOS>MOLECULE
ZINC000588570917
 51 52 1 0 0
SMALL
USER_CHARGES


@<TRIPOS>ATOM
      1 C1        -13.3172   -2.3068   56.3367 C.3     1  ZINC000588570917   -0.1300
      2 C2        -12.5918   -1.3986   55.3776 C.2     1  ZINC000588570917   -0.0500
      3 C3        -11.2640   -1.4316   55.3056 C.2     1  ZINC000588570917   -0.2000
      4 C4        -10.4849   -2.3760   56.1842 C.3     1  ZINC000588570917   -0.0900
      5 C5        -10.1789   -1.6949   57.5196 C.3     1  ZINC000588570917   -0.1500
      6 C6        -10.5562   -0.5464   54.3684 C.2     1  ZINC000588570917    0.5600
      7 O7        -11.1869    0.1643   53.6092 O.2     1  ZINC000588570917   -0.5100
      8 N8         -9.2088   -0.5227   54.3509 N.am    1  ZINC000588570917   -0.6800
      9 C9         -8.5358    0.3189   53.4599 C.ar    1  ZINC000588570917    0.2100
     10 C10        -8.1754    1.6018   53.8516 C.ar    1  ZINC000588570917   -0.1700
     11 C11        -7.5102    2.4302   52.9692 C.ar    1  ZINC000588570917    0.0000
     12 C12        -7.2029    1.9838   51.6970 C.ar    1  ZINC000588570917   -0.7000
     13 S13        -6.3541    3.0441   50.5744 S.o2    1  ZINC000588570917    2.6900
     14 O14        -6.8900    2.7757   49.2860 O.2     1  ZINC000588570917   -0.9500
     15 O15        -6.3572    4.3371   51.1636 O.2     1  ZINC000588570917   -0.9500
     16 N16        -4.7734    2.5519   50.5352 N.am    1  ZINC000588570917   -1.0000
     17 C17        -4.1501    2.1055   49.2793 C.3     1  ZINC000588570917    0.0900
     18 C18        -2.8283    2.8612   49.1003 C.3     1  ZINC000588570917    0.0700
     19 H19        -3.0336    3.9170   48.9235 H       1  ZINC000588570917    0.0700
     20 C20        -2.0661    2.2820   47.9069 C.3     1  ZINC000588570917   -0.1500
     21 O21        -2.0411    2.7197   50.2852 O.3     1  ZINC000588570917   -0.3700
     22 C22        -2.6387    3.2825   51.4556 C.3     1  ZINC000588570917    0.0800
     23 H23        -1.9588    3.1723   52.3004 H       1  ZINC000588570917    0.1200
     24 C24        -2.9247    4.7669   51.2199 C.3     1  ZINC000588570917   -0.1900
     25 C25        -3.9490    2.5537   51.7541 C.3     1  ZINC000588570917    0.0900
     26 C26        -7.5598    0.7070   51.3040 C.ar    1  ZINC000588570917    0.0000
     27 C27        -8.2209   -0.1283   52.1831 C.ar    1  ZINC000588570917   -0.1400
     28 H28       -14.3910   -2.1386   56.2546 H       1  ZINC000588570917    0.0600
     29 H29       -13.0926   -3.3454   56.0939 H       1  ZINC000588570917    0.0800
     30 H30       -12.9929   -2.0934   57.3552 H       1  ZINC000588570917    0.0800
     31 H31       -13.1500   -0.7206   54.7489 H       1  ZINC000588570917    0.1300
     32 H32       -11.0734   -3.2761   56.3619 H       1  ZINC000588570917    0.0700
     33 H33        -9.5508   -2.6443   55.6907 H       1  ZINC000588570917    0.0800
     34 H34       -11.1130   -1.4267   58.0131 H       1  ZINC000588570917    0.0500
     35 H35        -9.6154   -2.3780   58.1552 H       1  ZINC000588570917    0.0600
     36 H36        -9.5904   -0.7948   57.3420 H       1  ZINC000588570917    0.0600
     37 H37        -8.7059   -1.0895   54.9564 H       1  ZINC000588570917    0.4100
     38 H38        -8.4154    1.9512   54.8450 H       1  ZINC000588570917    0.1400
     39 H39        -7.2299    3.4280   53.2731 H       1  ZINC000588570917    0.1400
     40 H40        -3.9567    1.0338   49.3259 H       1  ZINC000588570917    0.0900
     41 H41        -4.8136    2.3233   48.4423 H       1  ZINC000588570917    0.1000
     42 H42        -2.6691    2.3870   47.0049 H       1  ZINC000588570917    0.0700
     43 H43        -1.1264    2.8198   47.7802 H       1  ZINC000588570917    0.0700
     44 H44        -1.8595    1.2267   48.0850 H       1  ZINC000588570917    0.0700
     45 H45        -3.6060    4.8762   50.3762 H       1  ZINC000588570917    0.0600
     46 H46        -3.3803    5.1953   52.1127 H       1  ZINC000588570917    0.0700
     47 H47        -1.9916    5.2868   51.0031 H       1  ZINC000588570917    0.0700
     48 H48        -4.4793    3.0659   52.5570 H       1  ZINC000588570917    0.1000
     49 H49        -3.7384    1.5260   52.0498 H       1  ZINC000588570917    0.0900
     50 H50        -7.3184    0.3613   50.3097 H       1  ZINC000588570917    0.1400
     51 H51        -8.4991   -1.1255   51.8757 H       1  ZINC000588570917    0.1500
@<TRIPOS>BOND
     1     1     2    1
     2     1    28    1
     3     1    29    1
     4     1    30    1
     5     2     3    2
     6     2    31    1
     7     3     4    1
     8     3     6    1
     9     4     5    1
    10     4    32    1
    11     4    33    1
    12     5    34    1
    13     5    35    1
    14     5    36    1
    15     6     7    2
    16     6     8   am
    17     8     9    1
    18     8    37    1
    19     9    27   ar
    20     9    10   ar
    21    10    11   ar
    22    10    38    1
    23    11    12   ar
    24    11    39    1
    25    12    13    1
    26    12    26   ar
    27    13    14    2
    28    13    15    2
    29    13    16   am
    30    16    25    1
    31    16    17    1
    32    17    18    1
    33    17    40    1
    34    17    41    1
    35    18    19    1
    36    18    20    1
    37    18    21    1
    38    20    42    1
    39    20    43    1
    40    20    44    1
    41    21    22    1
    42    22    23    1
    43    22    24    1
    44    22    25    1
    45    24    45    1
    46    24    46    1
    47    24    47    1
    48    25    48    1
    49    25    49    1
    50    26    27   ar
    51    26    50    1
    52    27    51    1
@<TRIPOS>SUBSTRUCTURE
     1 ZINC000588570917        1 TEMP              0 ****  ****    0 ROOT


##########                                Name:    ZINC000012979878
##########                DOCK_Rotatable_Bonds:                   7
##########                         Heavy_Atoms:                  26
##########                    Molecular_Weight:             388.874
##########                DOCK_Rotatable_Bonds:                   7
##########                       Formal_Charge:          -0.0100003
##########                     HBond_Acceptors:                   7
##########                        HBond_Donors:                   1
##########                         Heavy_Atoms:                  26
##########                          Grid_Score:          -30.473633
##########                     Grid_vdw_energy:          -30.517094
##########                      Grid_es_energy:            0.043462
##########           Internal_energy_repulsive:            9.478312

@<TRIPOS>MOLECULE
ZINC000012979878
 43 45 1 0 0
SMALL
USER_CHARGES


@<TRIPOS>ATOM
      1 C1        -11.7477   -2.3669   58.7701 C.3     1  <0>         0.0300
      2 O2        -11.2013   -1.9657   60.0281 O.3     1  <0>        -0.3100
      3 C3        -10.0892   -1.1854   59.9971 C.ar    1  <0>         0.1500
      4 C4         -9.5143   -0.7484   61.1822 C.ar    1  <0>        -0.2200
      5 C5         -8.3835    0.0457   61.1523 C.ar    1  <0>        -0.0600
      6 C6         -7.8216    0.4065   59.9433 C.ar    1  <0>        -0.1800
      7 C7         -8.3928   -0.0281   58.7535 C.ar    1  <0>         0.1800
      8 N8         -7.8240    0.3373   57.5294 N.am    1  <0>        -0.6700
      9 C9         -8.4588    1.2138   56.7262 C.2     1  <0>         0.6000
     10 O10        -9.5270    1.6873   57.0662 O.2     1  <0>        -0.4900
     11 C11        -7.8623    1.5970   55.4425 C.2     1  <0>        -0.3000
     12 C12        -6.8401    2.4712   55.2645 C.2     1  <0>         0.1600
     13 C13        -6.1644    3.1844   56.4073 C.3     1  <0>        -0.0900
     14 N14        -6.4910    2.6410   54.0140 N.2     1  <0>        -0.4500
     15 C15        -7.1441    1.9733   53.1180 C.2     1  <0>         0.0600
     16 C16        -6.8834    2.0408   51.6352 C.3     1  <0>         0.1300
     17 O17        -5.8599    1.1058   51.2885 O.3     1  <0>        -0.3000
     18 C18        -4.7082    1.6136   50.7756 C.ar    1  <0>         0.1300
     19 C19        -4.3649    1.3608   49.4556 C.ar    1  <0>        -0.2000
     20 C20        -3.1938    1.8777   48.9362 C.ar    1  <0>        -0.0700
     21 C21        -2.3634    2.6471   49.7318 C.ar    1  <0>        -0.0700
     22 Cl22       -0.8921    3.2953   49.0770 Cl      1  <0>        -0.0700
     23 C23        -2.7044    2.9008   51.0485 C.ar    1  <0>        -0.0700
     24 C24        -3.8774    2.3903   51.5700 C.ar    1  <0>        -0.1300
     25 S25        -8.3396    0.9987   53.8552 S.3     1  <0>         0.2000
     26 C26        -9.5250   -0.8301   58.7818 C.ar    1  <0>        -0.1500
     27 H27       -12.0262   -1.4829   58.1965 H       1  <0>         0.0600
     28 H28       -11.0035   -2.9397   58.2168 H       1  <0>         0.0600
     29 H29       -12.6304   -2.9842   58.9376 H       1  <0>         0.1000
     30 H30        -9.9515   -1.0289   62.1291 H       1  <0>         0.1300
     31 H31        -7.9386    0.3850   62.0760 H       1  <0>         0.1300
     32 H32        -6.9379    1.0271   59.9227 H       1  <0>         0.1300
     33 H33        -6.9726   -0.0402   57.2583 H       1  <0>         0.4100
     34 H34        -5.3273    2.5850   56.7655 H       1  <0>         0.0900
     35 H35        -5.7979    4.1525   56.0656 H       1  <0>         0.0800
     36 H36        -6.8788    3.3314   57.2171 H       1  <0>         0.1000
     37 H37        -7.7975    1.7961   51.0942 H       1  <0>         0.0900
     38 H38        -6.5616    3.0474   51.3683 H       1  <0>         0.1000
     39 H39        -5.0124    0.7596   48.8345 H       1  <0>         0.1400
     40 H40        -2.9262    1.6811   47.9086 H       1  <0>         0.1400
     41 H41        -2.0551    3.5018   51.6680 H       1  <0>         0.1400
     42 H42        -4.1432    2.5885   52.5978 H       1  <0>         0.1400
     43 H43        -9.9707   -1.1696   57.8586 H       1  <0>         0.1400
@<TRIPOS>BOND
     1     1     2    1
     2     1    27    1
     3     1    28    1
     4     1    29    1
     5     2     3    1
     6     3    26   ar
     7     3     4   ar
     8     4     5   ar
     9     4    30    1
    10     5     6   ar
    11     5    31    1
    12     6     7   ar
    13     6    32    1
    14     7     8    1
    15     7    26   ar
    16     8     9   am
    17     8    33    1
    18     9    10    2
    19     9    11    1
    20    11    25    1
    21    11    12    2
    22    12    13    1
    23    12    14    1
    24    13    34    1
    25    13    35    1
    26    13    36    1
    27    14    15    2
    28    15    16    1
    29    15    25    1
    30    16    17    1
    31    16    37    1
    32    16    38    1
    33    17    18    1
    34    18    24   ar
    35    18    19   ar
    36    19    20   ar
    37    19    39    1
    38    20    21   ar
    39    20    40    1
    40    21    22    1
    41    21    23   ar
    42    23    24   ar
    43    23    41    1
    44    24    42    1
    45    26    43    1
@<TRIPOS>SUBSTRUCTURE
     1 <0>         1 TEMP              0 ****  ****    0 ROOT


##########                                Name:    ZINC000548281822
##########                DOCK_Rotatable_Bonds:                   6
##########                         Heavy_Atoms:                  24
##########                    Molecular_Weight:             332.406
##########                DOCK_Rotatable_Bonds:                   6
##########                       Formal_Charge:        -5.58794e-08
##########                     HBond_Acceptors:                   8
##########                        HBond_Donors:                   2
##########                         Heavy_Atoms:                  24
##########                          Grid_Score:          -30.423885
##########                     Grid_vdw_energy:          -29.874901
##########                      Grid_es_energy:           -0.548984
##########           Internal_energy_repulsive:            7.127074

@<TRIPOS>MOLECULE
ZINC000548281822
 48 50 1 0 0
SMALL
USER_CHARGES


@<TRIPOS>ATOM
      1 C1        -11.4273    1.1113   55.3829 C.3     1  ZINC000548281822   -0.1700
      2 C2        -11.3961   -0.1550   54.5246 C.3     1  ZINC000548281822    0.2600
      3 H3        -11.9750    0.0079   53.6156 H       1  ZINC000548281822    0.1400
      4 N4        -10.0100   -0.4710   54.1708 N.am    1  ZINC000548281822   -0.7400
      5 C5         -9.3659    0.2669   53.2451 C.2     1  ZINC000548281822    0.7100
      6 O6         -9.9355    1.1939   52.7024 O.2     1  ZINC000548281822   -0.5700
      7 N7         -8.0902   -0.0228   52.9207 N.am    1  ZINC000548281822   -0.7400
      8 C8         -7.3894    0.7803   51.9156 C.3     1  ZINC000548281822    0.1600
      9 H9         -8.1095    1.1765   51.1996 H       1  ZINC000548281822    0.1000
     10 C10        -6.6618    1.9391   52.6036 C.3     1  ZINC000548281822   -0.1400
     11 C11        -6.1270    2.9086   51.5438 C.3     1  ZINC000548281822    0.1100
     12 N12        -5.3842    2.1455   50.5380 N.pl3   1  ZINC000548281822   -0.4600
     13 C13        -4.4925    2.6183   49.6219 C.2     1  ZINC000548281822   -0.0500
     14 C14        -4.0646    1.5539   48.9129 C.2     1  ZINC000548281822   -0.0300
     15 N15        -4.6831    0.4608   49.3884 N.2     1  ZINC000548281822   -0.4900
     16 C16        -5.4751    0.8061   50.3609 C.2     1  ZINC000548281822    0.2100
     17 C17        -6.3664   -0.0960   51.1819 C.3     1  ZINC000548281822   -0.0500
     18 C18       -11.9907   -1.3022   55.3000 C.2     1  ZINC000548281822    0.1700
     19 N19       -13.2665   -1.5657   55.4496 N.2     1  ZINC000548281822   -0.4600
     20 C20       -13.3207   -2.6730   56.2110 C.2     1  ZINC000548281822    0.1900
     21 C21       -14.5700   -3.3815   56.6672 C.3     1  ZINC000548281822    0.0200
     22 C22       -14.3128   -4.8890   56.7154 C.3     1  ZINC000548281822   -0.1400
     23 C23       -14.9572   -2.8854   58.0618 C.3     1  ZINC000548281822   -0.1400
     24 C24       -15.7085   -3.0894   55.6878 C.3     1  ZINC000548281822   -0.1400
     25 N25       -12.0978   -3.0201   56.4806 N.2     1  ZINC000548281822   -0.3700
     26 O26       -11.3184   -2.2488   55.9617 O.3     1  ZINC000548281822    0.0800
     27 H27       -10.8484    0.9484   56.2920 H       1  ZINC000548281822    0.0700
     28 H28       -10.9973    1.9410   54.8220 H       1  ZINC000548281822    0.0900
     29 H29       -12.4586    1.3464   55.6461 H       1  ZINC000548281822    0.0800
     30 H30        -9.5559   -1.2113   54.6029 H       1  ZINC000548281822    0.4000
     31 H31        -7.6361   -0.7631   53.3527 H       1  ZINC000548281822    0.4000
     32 H32        -7.3550    2.4649   53.2600 H       1  ZINC000548281822    0.1000
     33 H33        -5.8307    1.5486   53.1910 H       1  ZINC000548281822    0.0800
     34 H34        -6.9602    3.4258   51.0682 H       1  ZINC000548281822    0.0900
     35 H35        -5.4641    3.6348   52.0143 H       1  ZINC000548281822    0.1000
     36 H36        -4.1881    3.6460   49.4891 H       1  ZINC000548281822    0.1800
     37 H37        -3.3498    1.5767   48.1036 H       1  ZINC000548281822    0.1700
     38 H38        -5.7658   -0.6452   51.9071 H       1  ZINC000548281822    0.0900
     39 H39        -6.8842   -0.7965   50.5267 H       1  ZINC000548281822    0.1000
     40 H40       -13.5017   -5.0971   57.4132 H       1  ZINC000548281822    0.0600
     41 H41       -15.2164   -5.4014   57.0454 H       1  ZINC000548281822    0.0700
     42 H42       -14.0369   -5.2424   55.7218 H       1  ZINC000548281822    0.0700
     43 H43       -15.1405   -1.8115   58.0275 H       1  ZINC000548281822    0.0600
     44 H44       -15.8608   -3.3979   58.3918 H       1  ZINC000548281822    0.0700
     45 H45       -14.1461   -3.0935   58.7597 H       1  ZINC000548281822    0.0600
     46 H46       -15.4328   -3.4429   54.6942 H       1  ZINC000548281822    0.0700
     47 H47       -16.6122   -3.6019   56.0177 H       1  ZINC000548281822    0.0700
     48 H48       -15.8918   -2.0155   55.6535 H       1  ZINC000548281822    0.0600
@<TRIPOS>BOND
     1     1     2    1
     2     1    27    1
     3     1    28    1
     4     1    29    1
     5     2     3    1
     6     2     4    1
     7     2    18    1
     8     4     5   am
     9     4    30    1
    10     5     6    2
    11     5     7   am
    12     7     8    1
    13     7    31    1
    14     8     9    1
    15     8    17    1
    16     8    10    1
    17    10    11    1
    18    10    32    1
    19    10    33    1
    20    11    12    1
    21    11    34    1
    22    11    35    1
    23    12    16    1
    24    12    13    1
    25    13    14    2
    26    13    36    1
    27    14    15    1
    28    14    37    1
    29    15    16    2
    30    16    17    1
    31    17    38    1
    32    17    39    1
    33    18    26    1
    34    18    19    2
    35    19    20    1
    36    20    21    1
    37    20    25    2
    38    21    22    1
    39    21    23    1
    40    21    24    1
    41    22    40    1
    42    22    41    1
    43    22    42    1
    44    23    43    1
    45    23    44    1
    46    23    45    1
    47    24    46    1
    48    24    47    1
    49    24    48    1
    50    25    26    1
@<TRIPOS>SUBSTRUCTURE
     1 ZINC000548281822        1 TEMP              0 ****  ****    0 ROOT


##########                                Name:    ZINC000771225867
##########                DOCK_Rotatable_Bonds:                   9
##########                         Heavy_Atoms:                  23
##########                    Molecular_Weight:             355.802
##########                DOCK_Rotatable_Bonds:                   9
##########                       Formal_Charge:        -3.12924e-07
##########                     HBond_Acceptors:                   9
##########                        HBond_Donors:                   3
##########                         Heavy_Atoms:                  23
##########                          Grid_Score:          -30.421589
##########                     Grid_vdw_energy:          -30.726648
##########                      Grid_es_energy:            0.305059
##########           Internal_energy_repulsive:            8.996103

@<TRIPOS>MOLECULE
ZINC000771225867
 37 38 1 0 0
SMALL
USER_CHARGES


@<TRIPOS>ATOM
      1 C1         -9.2725   -0.6414   52.7050 C.3     1  ZINC000771225867    0.0400
      2 O2         -8.0751   -0.3908   51.9664 O.3     1  ZINC000771225867   -0.3600
      3 C3         -7.8894    0.8650   51.5079 C.2     1  ZINC000771225867    0.5500
      4 O4         -8.7001    1.7343   51.7693 O.2     1  ZINC000771225867   -0.4900
      5 C5         -6.7520    1.1708   50.7232 C.2     1  ZINC000771225867   -0.3400
      6 C6         -6.5548    2.3174   49.9989 C.2     1  ZINC000771225867    0.2700
      7 Cl7        -7.7138    3.6084   49.9371 Cl      1  ZINC000771225867    0.0400
      8 N8         -5.4137    2.3516   49.3583 N.2     1  ZINC000771225867   -0.5500
      9 C9         -4.6274    1.3209   49.4840 C.2     1  ZINC000771225867    0.3400
     10 N10        -3.3952    1.1958   48.8802 N.pl3   1  ZINC000771225867   -0.6700
     11 C11        -2.6524    2.3923   48.4768 C.3     1  ZINC000771225867    0.1700
     12 C12        -1.6760    2.7671   49.5619 C.ar    1  ZINC000771225867   -0.0800
     13 C13        -2.1094    3.4784   50.6653 C.ar    1  ZINC000771225867   -0.1300
     14 C14        -1.2160    3.8238   51.6627 C.ar    1  ZINC000771225867   -0.0800
     15 C15         0.1121    3.4587   51.5587 C.ar    1  ZINC000771225867   -0.2000
     16 C16         0.5496    2.7447   50.4523 C.ar    1  ZINC000771225867    0.1300
     17 O17         1.8556    2.3840   50.3479 O.3     1  ZINC000771225867   -0.2900
     18 C18         2.1307    0.9983   50.1328 C.3     1  ZINC000771225867    0.0400
     19 C19         3.3467    0.5982   50.9280 C.2     1  ZINC000771225867    0.5200
     20 N20         3.9895    1.5120   51.6820 N.am    1  ZINC000771225867   -0.8500
     21 O21         3.7469   -0.5460   50.8894 O.2     1  ZINC000771225867   -0.5200
     22 C22        -0.3497    2.3946   49.4558 C.ar    1  ZINC000771225867   -0.1200
     23 S23        -5.3328    0.1491   50.5087 S.3     1  ZINC000771225867    0.2200
     24 H24        -9.2962   -0.0012   53.5869 H       1  ZINC000771225867    0.0600
     25 H25       -10.1379   -0.4277   52.0776 H       1  ZINC000771225867    0.0600
     26 H26        -9.2969   -1.6864   53.0140 H       1  ZINC000771225867    0.1000
     27 H27        -3.0196    0.3155   48.7224 H       1  ZINC000771225867    0.4200
     28 H28        -2.1092    2.1887   47.5538 H       1  ZINC000771225867    0.0900
     29 H29        -3.3487    3.2149   48.3147 H       1  ZINC000771225867    0.0900
     30 H30        -3.1472    3.7651   50.7482 H       1  ZINC000771225867    0.1300
     31 H31        -1.5569    4.3798   52.5235 H       1  ZINC000771225867    0.1300
     32 H32         0.8095    3.7291   52.3378 H       1  ZINC000771225867    0.1300
     33 H33         1.2752    0.4040   50.4535 H       1  ZINC000771225867    0.1000
     34 H34         2.3167    0.8251   49.0728 H       1  ZINC000771225867    0.1000
     35 H35         4.7715    1.2541   52.1947 H       1  ZINC000771225867    0.4000
     36 H36         3.6701    2.4273   51.7119 H       1  ZINC000771225867    0.4100
     37 H37        -0.0117    1.8389   48.5937 H       1  ZINC000771225867    0.1400
@<TRIPOS>BOND
     1     1     2    1
     2     1    24    1
     3     1    25    1
     4     1    26    1
     5     2     3    1
     6     3     4    2
     7     3     5    1
     8     5    23    1
     9     5     6    2
    10     6     7    1
    11     6     8    1
    12     8     9    2
    13     9    10    1
    14     9    23    1
    15    10    11    1
    16    10    27    1
    17    11    12    1
    18    11    28    1
    19    11    29    1
    20    12    22   ar
    21    12    13   ar
    22    13    14   ar
    23    13    30    1
    24    14    15   ar
    25    14    31    1
    26    15    16   ar
    27    15    32    1
    28    16    17    1
    29    16    22   ar
    30    17    18    1
    31    18    19    1
    32    18    33    1
    33    18    34    1
    34    19    20   am
    35    19    21    2
    36    20    35    1
    37    20    36    1
    38    22    37    1
@<TRIPOS>SUBSTRUCTURE
     1 ZINC000771225867        1 TEMP              0 ****  ****    0 ROOT


##########                                Name:    ZINC000616491533
##########                DOCK_Rotatable_Bonds:                   4
##########                         Heavy_Atoms:                  27
##########                    Molecular_Weight:             375.418
##########                DOCK_Rotatable_Bonds:                   4
##########                       Formal_Charge:           0.0299996
##########                     HBond_Acceptors:                   7
##########                        HBond_Donors:                   0
##########                         Heavy_Atoms:                  27
##########                          Grid_Score:          -30.420475
##########                     Grid_vdw_energy:          -28.077728
##########                      Grid_es_energy:           -2.342746
##########           Internal_energy_repulsive:           13.323260

@<TRIPOS>MOLECULE
ZINC000616491533
 50 53 1 0 0
SMALL
USER_CHARGES


@<TRIPOS>ATOM
      1 C1         -6.3622    5.7352   50.6949 C.3     1  ZINC000616491533   -0.1700
      2 C2         -6.4380    4.6353   51.7556 C.3     1  ZINC000616491533    0.1400
      3 H3         -7.0529    4.9686   52.5917 H       1  ZINC000616491533    0.0800
      4 C4         -7.0394    3.3525   51.1400 C.3     1  ZINC000616491533   -0.1200
      5 C5         -5.7890    2.5112   50.8093 C.3     1  ZINC000616491533   -0.0700
      6 C6         -4.8279    2.8736   51.9576 C.3     1  ZINC000616491533    0.0900
      7 N7         -5.0858    4.3041   52.2301 N.am    1  ZINC000616491533   -0.6100
      8 C8         -4.2233    5.1601   52.8130 C.2     1  ZINC000616491533    0.6100
      9 O9         -4.5419    6.3210   52.9855 O.2     1  ZINC000616491533   -0.5200
     10 C10        -2.8937    4.6893   53.2414 C.2     1  ZINC000616491533   -0.2400
     11 C11        -2.4908    4.4418   54.5385 C.2     1  ZINC000616491533    0.0700
     12 C12        -3.3298    4.6033   55.7798 C.3     1  ZINC000616491533    0.3400
     13 F13        -4.2977    5.5900   55.5635 F       1  ZINC000616491533   -0.1900
     14 F14        -3.9592    3.3901   56.0783 F       1  ZINC000616491533   -0.1600
     15 N15        -1.2110    4.0293   54.4900 N.pl3   1  ZINC000616491533   -0.2900
     16 C16        -0.4225    3.6736   55.5927 C.ar    1  ZINC000616491533    0.1300
     17 C17         0.8172    4.2692   55.7826 C.ar    1  ZINC000616491533   -0.1000
     18 C18         1.5919    3.9166   56.8703 C.ar    1  ZINC000616491533   -0.1000
     19 C19         1.1342    2.9710   57.7694 C.ar    1  ZINC000616491533   -0.1000
     20 C20        -0.1000    2.3760   57.5831 C.ar    1  ZINC000616491533   -0.1000
     21 C21        -0.8820    2.7289   56.5008 C.ar    1  ZINC000616491533   -0.0900
     22 N22        -0.8004    4.0155   53.1523 N.2     1  ZINC000616491533   -0.2600
     23 C23        -1.7948    4.4012   52.4007 C.2     1  ZINC000616491533    0.0700
     24 C24        -6.1197    1.0260   50.8317 C.3     1  ZINC000616491533   -0.1400
     25 C25        -4.8691    0.2241   50.4548 C.3     1  ZINC000616491533    0.0600
     26 O26        -4.3906    0.6661   49.1827 O.3     1  ZINC000616491533   -0.3800
     27 C27        -3.9939    2.0387   49.1488 C.3     1  ZINC000616491533    0.0600
     28 C28        -5.2043    2.9238   49.4663 C.3     1  ZINC000616491533   -0.1500
     29 H29        -5.7361    5.4001   49.8681 H       1  ZINC000616491533    0.0600
     30 H30        -7.3643    5.9542   50.3263 H       1  ZINC000616491533    0.0600
     31 H31        -5.9322    6.6351   51.1347 H       1  ZINC000616491533    0.0800
     32 H32        -7.6712    2.8369   51.8633 H       1  ZINC000616491533    0.0800
     33 H33        -7.5988    3.5849   50.2339 H       1  ZINC000616491533    0.0900
     34 H34        -5.0490    2.2744   52.8409 H       1  ZINC000616491533    0.0800
     35 H35        -3.7933    2.7266   51.6474 H       1  ZINC000616491533    0.0800
     36 H36        -2.6921    4.8967   56.6138 H       1  ZINC000616491533    0.1400
     37 H37         1.1755    5.0073   55.0803 H       1  ZINC000616491533    0.1300
     38 H38         2.5563    4.3796   57.0185 H       1  ZINC000616491533    0.1400
     39 H39         1.7422    2.6963   58.6188 H       1  ZINC000616491533    0.1300
     40 H40        -0.4548    1.6378   58.2870 H       1  ZINC000616491533    0.1400
     41 H41        -1.8460    2.2638   56.3556 H       1  ZINC000616491533    0.1300
     42 H42        -1.7790    4.4905   51.3245 H       1  ZINC000616491533    0.2100
     43 H43        -6.4472    0.7410   51.8315 H       1  ZINC000616491533    0.0800
     44 H44        -6.9145    0.8191   50.1149 H       1  ZINC000616491533    0.0800
     45 H45        -4.0967    0.3791   51.2081 H       1  ZINC000616491533    0.0500
     46 H46        -5.1186   -0.8357   50.4016 H       1  ZINC000616491533    0.1000
     47 H47        -3.2134    2.2102   49.8901 H       1  ZINC000616491533    0.0500
     48 H48        -3.6144    2.2834   48.1568 H       1  ZINC000616491533    0.1000
     49 H49        -5.9581    2.8021   48.6883 H       1  ZINC000616491533    0.0800
     50 H50        -4.8910    3.9667   49.5106 H       1  ZINC000616491533    0.0800
@<TRIPOS>BOND
     1     1     2    1
     2     1    29    1
     3     1    30    1
     4     1    31    1
     5     2     3    1
     6     2     7    1
     7     2     4    1
     8     4     5    1
     9     4    32    1
    10     4    33    1
    11     5    28    1
    12     5     6    1
    13     5    24    1
    14     6     7    1
    15     6    34    1
    16     6    35    1
    17     7     8   am
    18     8     9    2
    19     8    10    1
    20    10    23    1
    21    10    11    2
    22    11    12    1
    23    11    15    1
    24    12    13    1
    25    12    14    1
    26    12    36    1
    27    15    16    1
    28    15    22    1
    29    16    21   ar
    30    16    17   ar
    31    17    18   ar
    32    17    37    1
    33    18    19   ar
    34    18    38    1
    35    19    20   ar
    36    19    39    1
    37    20    21   ar
    38    20    40    1
    39    21    41    1
    40    22    23    2
    41    23    42    1
    42    24    25    1
    43    24    43    1
    44    24    44    1
    45    25    26    1
    46    25    45    1
    47    25    46    1
    48    26    27    1
    49    27    28    1
    50    27    47    1
    51    27    48    1
    52    28    49    1
    53    28    50    1
@<TRIPOS>SUBSTRUCTURE
     1 ZINC000616491533        1 TEMP              0 ****  ****    0 ROOT


##########                                Name:    ZINC000534799364
##########                DOCK_Rotatable_Bonds:                   4
##########                         Heavy_Atoms:                  29
##########                    Molecular_Weight:             391.491
##########                DOCK_Rotatable_Bonds:                   4
##########                       Formal_Charge:           0.0199998
##########                     HBond_Acceptors:                   6
##########                        HBond_Donors:                   0
##########                         Heavy_Atoms:                  29
##########                          Grid_Score:          -30.419540
##########                     Grid_vdw_energy:          -29.874195
##########                      Grid_es_energy:           -0.545345
##########           Internal_energy_repulsive:            7.395833

@<TRIPOS>MOLECULE
ZINC000534799364
 55 59 1 0 0
SMALL
USER_CHARGES


@<TRIPOS>ATOM
      1 C1         -9.5849   -0.2697   53.2682 C.3     1  ZINC000534799364   -0.1100
      2 C2         -9.1542    0.8737   54.1504 C.ar    1  ZINC000534799364   -0.0200
      3 C3         -9.7445    1.0774   55.3866 C.ar    1  ZINC000534799364   -0.1700
      4 C4         -9.3242    2.1368   56.1695 C.ar    1  ZINC000534799364    0.1000
      5 N5         -8.3733    2.9505   55.7547 N.ar    1  ZINC000534799364   -0.4800
      6 C6         -7.7852    2.7928   54.5855 C.ar    1  ZINC000534799364    0.0800
      7 C7         -8.1486    1.7484   53.7452 C.ar    1  ZINC000534799364    0.0300
      8 N8         -7.5227    1.5842   52.5070 N.3     1  ZINC000534799364   -0.5000
      9 C9         -6.0982    1.2647   52.6751 C.3     1  ZINC000534799364    0.0600
     10 C10        -5.4686    1.0149   51.3027 C.3     1  ZINC000534799364    0.0600
     11 N11        -5.6421    2.2080   50.4625 N.3     1  ZINC000534799364   -0.5300
     12 C12        -4.9840    2.0353   49.1606 C.3     1  ZINC000534799364    0.1400
     13 C13        -3.5334    2.4272   49.2751 C.2     1  ZINC000534799364    0.1100
     14 N14        -2.5347    1.8595   48.6497 N.2     1  ZINC000534799364   -0.2800
     15 N15        -1.3549    2.5136   49.0243 N.pl3   1  ZINC000534799364   -0.3100
     16 C16        -0.0626    2.2067   48.5742 C.ar    1  ZINC000534799364    0.1500
     17 C17         0.2106    2.1763   47.2134 C.ar    1  ZINC000534799364   -0.1000
     18 C18         1.4839    1.8739   46.7722 C.ar    1  ZINC000534799364   -0.1300
     19 C19         2.4878    1.6010   47.6862 C.ar    1  ZINC000534799364    0.1000
     20 F20         3.7328    1.3057   47.2528 F       1  ZINC000534799364   -0.1300
     21 C21         2.2171    1.6308   49.0441 C.ar    1  ZINC000534799364   -0.1300
     22 C22         0.9465    1.9385   49.4893 C.ar    1  ZINC000534799364   -0.0800
     23 C23        -1.6826    3.4955   49.8983 C.2     1  ZINC000534799364    0.0500
     24 C24        -3.0234    3.4667   50.0658 C.2     1  ZINC000534799364   -0.2200
     25 C25        -3.4531    4.5461   51.0360 C.3     1  ZINC000534799364   -0.0400
     26 C26        -2.1601    4.9608   51.7715 C.3     1  ZINC000534799364   -0.1200
     27 C27        -1.0723    4.5985   50.7354 C.3     1  ZINC000534799364   -0.0500
     28 C28        -7.0666    2.5275   50.2943 C.3     1  ZINC000534799364    0.0600
     29 C29        -7.6962    2.7774   51.6668 C.3     1  ZINC000534799364    0.0600
     30 H30        -8.9253   -1.1222   53.4305 H       1  ZINC000534799364    0.0800
     31 H31       -10.6092   -0.5513   53.5123 H       1  ZINC000534799364    0.0600
     32 H32        -9.5315    0.0373   52.2237 H       1  ZINC000534799364    0.0800
     33 H33       -10.5245    0.4165   55.7349 H       1  ZINC000534799364    0.1400
     34 H34        -9.7816    2.3003   57.1341 H       1  ZINC000534799364    0.1600
     35 H35        -7.0102    3.4801   54.2799 H       1  ZINC000534799364    0.1500
     36 H36        -5.5930    2.0999   53.1604 H       1  ZINC000534799364    0.0500
     37 H37        -5.9963    0.3706   53.2902 H       1  ZINC000534799364    0.0800
     38 H38        -4.4056    0.8061   51.4228 H       1  ZINC000534799364    0.0900
     39 H39        -5.9556    0.1625   50.8290 H       1  ZINC000534799364    0.0500
     40 H40        -5.0554    0.9921   48.8529 H       1  ZINC000534799364    0.1000
     41 H41        -5.4736    2.6670   48.4194 H       1  ZINC000534799364    0.0500
     42 H42        -0.5722    2.3887   46.5003 H       1  ZINC000534799364    0.1400
     43 H43         1.6966    1.8498   45.7136 H       1  ZINC000534799364    0.1500
     44 H44         3.0012    1.4173   49.7555 H       1  ZINC000534799364    0.1500
     45 H45         0.7358    1.9620   50.5482 H       1  ZINC000534799364    0.1400
     46 H46        -3.8710    5.3959   50.4963 H       1  ZINC000534799364    0.0800
     47 H47        -4.1816    4.1508   51.7439 H       1  ZINC000534799364    0.0700
     48 H48        -2.1566    6.0306   51.9797 H       1  ZINC000534799364    0.0800
     49 H49        -2.0331    4.3866   52.6893 H       1  ZINC000534799364    0.0800
     50 H50        -0.1754    4.2370   51.2384 H       1  ZINC000534799364    0.0800
     51 H51        -0.8371    5.4633   50.1149 H       1  ZINC000534799364    0.0900
     52 H52        -7.1686    3.4216   49.6792 H       1  ZINC000534799364    0.0900
     53 H53        -7.5718    1.6924   49.8091 H       1  ZINC000534799364    0.0500
     54 H54        -8.7593    2.9862   51.5467 H       1  ZINC000534799364    0.0800
     55 H55        -7.2091    3.6296   52.1405 H       1  ZINC000534799364    0.0500
@<TRIPOS>BOND
     1     1     2    1
     2     1    30    1
     3     1    31    1
     4     1    32    1
     5     2     7   ar
     6     2     3   ar
     7     3     4   ar
     8     3    33    1
     9     4     5   ar
    10     4    34    1
    11     5     6   ar
    12     6     7   ar
    13     6    35    1
    14     7     8    1
    15     8    29    1
    16     8     9    1
    17     9    10    1
    18     9    36    1
    19     9    37    1
    20    10    11    1
    21    10    38    1
    22    10    39    1
    23    11    12    1
    24    11    28    1
    25    12    13    1
    26    12    40    1
    27    12    41    1
    28    13    24    1
    29    13    14    2
    30    14    15    1
    31    15    16    1
    32    15    23    1
    33    16    22   ar
    34    16    17   ar
    35    17    18   ar
    36    17    42    1
    37    18    19   ar
    38    18    43    1
    39    19    20    1
    40    19    21   ar
    41    21    22   ar
    42    21    44    1
    43    22    45    1
    44    23    27    1
    45    23    24    2
    46    24    25    1
    47    25    26    1
    48    25    46    1
    49    25    47    1
    50    26    27    1
    51    26    48    1
    52    26    49    1
    53    27    50    1
    54    27    51    1
    55    28    29    1
    56    28    52    1
    57    28    53    1
    58    29    54    1
    59    29    55    1
@<TRIPOS>SUBSTRUCTURE
     1 ZINC000534799364        1 TEMP              0 ****  ****    0 ROOT


##########                                Name:    ZINC000433533595
##########                DOCK_Rotatable_Bonds:                  10
##########                         Heavy_Atoms:                  24
##########                    Molecular_Weight:             397.312
##########                DOCK_Rotatable_Bonds:                  10
##########                       Formal_Charge:          0.00999916
##########                     HBond_Acceptors:                   5
##########                        HBond_Donors:                   1
##########                         Heavy_Atoms:                  24
##########                          Grid_Score:          -30.417553
##########                     Grid_vdw_energy:          -30.369928
##########                      Grid_es_energy:           -0.047624
##########           Internal_energy_repulsive:           19.681290

@<TRIPOS>MOLECULE
ZINC000433533595
 49 50 1 0 0
SMALL
USER_CHARGES


@<TRIPOS>ATOM
      1 C1         -5.3764    0.0400   50.1274 C.3     1  ZINC000433533595   -0.1500
      2 C2         -6.3172    1.1257   50.6536 C.3     1  ZINC000433533595   -0.1200
      3 C3         -7.0963    0.5871   51.8552 C.3     1  ZINC000433533595   -0.1300
      4 C4         -8.1800    1.5915   52.2522 C.3     1  ZINC000433533595    0.1000
      5 N5         -8.8670    1.1181   53.4565 N.am    1  ZINC000433533595   -0.5500
      6 C6         -9.8846    0.2407   53.3509 C.2     1  ZINC000433533595    0.5100
      7 O7        -10.2318   -0.1572   52.2582 O.2     1  ZINC000433533595   -0.5100
      8 C8        -10.5849   -0.2419   54.5785 C.2     1  ZINC000433533595    0.5000
      9 O9        -11.6107    0.2954   54.9428 O.2     1  ZINC000433533595   -0.4900
     10 N10       -10.0780   -1.2738   55.2818 N.am    1  ZINC000433533595   -0.6300
     11 C11       -10.7339   -1.7257   56.4315 C.ar    1  ZINC000433533595    0.1200
     12 C12       -11.8996   -2.4701   56.3203 C.ar    1  ZINC000433533595   -0.0600
     13 C13       -12.5460   -2.9157   57.4587 C.ar    1  ZINC000433533595   -0.1100
     14 Br14      -14.1342   -3.9306   57.3054 Br      1  ZINC000433533595   -0.0400
     15 C15       -12.0331   -2.6212   58.7092 C.ar    1  ZINC000433533595   -0.0600
     16 C16       -10.8719   -1.8799   58.8276 C.ar    1  ZINC000433533595   -0.1900
     17 C17       -10.2152   -1.4346   57.6923 C.ar    1  ZINC000433533595    0.1300
     18 O18        -9.0731   -0.7055   57.8076 O.3     1  ZINC000433533595   -0.3100
     19 C19        -9.0081    0.2326   58.8835 C.3     1  ZINC000433533595    0.0800
     20 C20        -7.8881   -0.1706   59.8447 C.3     1  ZINC000433533595   -0.1500
     21 C21        -8.7238    1.6288   58.3262 C.3     1  ZINC000433533595   -0.1800
     22 C22        -8.4478    1.5984   54.7755 C.3     1  ZINC000433533595    0.0600
     23 C23        -7.0780    2.2719   54.8794 C.3     1  ZINC000433533595   -0.1900
     24 C24        -8.3529    3.1120   54.9787 C.3     1  ZINC000433533595   -0.1800
     25 H25        -5.9591   -0.8293   49.8226 H       1  ZINC000433533595    0.0500
     26 H26        -4.8214    0.4238   49.2714 H       1  ZINC000433533595    0.0500
     27 H27        -4.6784   -0.2480   50.9136 H       1  ZINC000433533595    0.0500
     28 H28        -5.7345    1.9950   50.9585 H       1  ZINC000433533595    0.0700
     29 H29        -7.0153    1.4138   49.8675 H       1  ZINC000433533595    0.0600
     30 H30        -7.5607   -0.3630   51.5909 H       1  ZINC000433533595    0.0600
     31 H31        -6.4149    0.4379   52.6927 H       1  ZINC000433533595    0.0700
     32 H32        -7.7220    2.5601   52.4523 H       1  ZINC000433533595    0.1100
     33 H33        -8.8990    1.6905   51.4390 H       1  ZINC000433533595    0.0800
     34 H34        -9.2583   -1.7030   54.9907 H       1  ZINC000433533595    0.4300
     35 H35       -12.3021   -2.7011   55.3450 H       1  ZINC000433533595    0.1600
     36 H36       -12.5415   -2.9710   59.5957 H       1  ZINC000433533595    0.1400
     37 H37       -10.4744   -1.6518   59.8055 H       1  ZINC000433533595    0.1500
     38 H38        -9.9589    0.2408   59.4164 H       1  ZINC000433533595    0.0800
     39 H39        -6.9373   -0.1788   59.3118 H       1  ZINC000433533595    0.0700
     40 H40        -7.8385    0.5450   60.6654 H       1  ZINC000433533595    0.0800
     41 H41        -8.0906   -1.1654   60.2418 H       1  ZINC000433533595    0.0700
     42 H42        -7.7730    1.6207   57.7933 H       1  ZINC000433533595    0.0700
     43 H43        -9.5217    1.9161   57.6414 H       1  ZINC000433533595    0.0600
     44 H44        -8.6742    2.3444   59.1469 H       1  ZINC000433533595    0.0800
     45 H45        -8.7787    0.9967   55.6220 H       1  ZINC000433533595    0.1400
     46 H46        -6.5073    2.1132   55.7943 H       1  ZINC000433533595    0.0900
     47 H47        -6.4887    2.3576   53.9664 H       1  ZINC000433533595    0.1400
     48 H48        -8.6024    3.7501   54.1311 H       1  ZINC000433533595    0.1000
     49 H49        -8.6210    3.5058   55.9590 H       1  ZINC000433533595    0.1000
@<TRIPOS>BOND
     1     1     2    1
     2     1    25    1
     3     1    26    1
     4     1    27    1
     5     2     3    1
     6     2    28    1
     7     2    29    1
     8     3     4    1
     9     3    30    1
    10     3    31    1
    11     4     5    1
    12     4    32    1
    13     4    33    1
    14     5     6   am
    15     5    22    1
    16     6     7    2
    17     6     8    1
    18     8     9    2
    19     8    10   am
    20    10    11    1
    21    10    34    1
    22    11    17   ar
    23    11    12   ar
    24    12    13   ar
    25    12    35    1
    26    13    14    1
    27    13    15   ar
    28    15    16   ar
    29    15    36    1
    30    16    17   ar
    31    16    37    1
    32    17    18    1
    33    18    19    1
    34    19    20    1
    35    19    21    1
    36    19    38    1
    37    20    39    1
    38    20    40    1
    39    20    41    1
    40    21    42    1
    41    21    43    1
    42    21    44    1
    43    22    24    1
    44    22    23    1
    45    22    45    1
    46    23    24    1
    47    23    46    1
    48    23    47    1
    49    24    48    1
    50    24    49    1
@<TRIPOS>SUBSTRUCTURE
     1 ZINC000433533595        1 TEMP              0 ****  ****    0 ROOT


##########                                Name:    ZINC000518234532
##########                DOCK_Rotatable_Bonds:                   5
##########                         Heavy_Atoms:                  25
##########                    Molecular_Weight:             408.267
##########                DOCK_Rotatable_Bonds:                   5
##########                       Formal_Charge:         -0.00999981
##########                     HBond_Acceptors:                   5
##########                        HBond_Donors:                   1
##########                         Heavy_Atoms:                  25
##########                          Grid_Score:          -30.408094
##########                     Grid_vdw_energy:          -30.159382
##########                      Grid_es_energy:           -0.248713
##########           Internal_energy_repulsive:           20.540468

@<TRIPOS>MOLECULE
ZINC000518234532
 44 46 1 0 0
SMALL
USER_CHARGES


@<TRIPOS>ATOM
      1 C1         -4.3094    5.2592   51.0647 C.3     1  ZINC000518234532   -0.1600
      2 C2         -3.7948    3.9831   51.7340 C.3     1  ZINC000518234532    0.1800
      3 H3         -2.8373    3.7032   51.2947 H       1  ZINC000518234532    0.1100
      4 N4         -3.6231    4.2197   53.1695 N.am    1  ZINC000518234532   -0.7300
      5 C5         -2.5393    3.7351   53.8074 C.2     1  ZINC000518234532    0.5200
      6 O6         -1.7055    3.1044   53.1926 O.2     1  ZINC000518234532   -0.5200
      7 C7         -2.3635    3.9769   55.2844 C.3     1  ZINC000518234532   -0.0700
      8 H8         -3.0738    3.3644   55.8399 H       1  ZINC000518234532    0.1100
      9 C9         -2.6138    5.4544   55.5927 C.3     1  ZINC000518234532   -0.1400
     10 C10        -0.9592    3.6101   55.6899 C.ar    1  ZINC000518234532   -0.1000
     11 C11        -0.7493    2.6917   56.7009 C.ar    1  ZINC000518234532   -0.0600
     12 C12         0.5391    2.3550   57.0731 C.ar    1  ZINC000518234532   -0.1300
     13 C13         1.6184    2.9368   56.4350 C.ar    1  ZINC000518234532   -0.0900
     14 C14         1.4108    3.8560   55.4238 C.ar    1  ZINC000518234532   -0.1600
     15 C15         0.1214    4.1889   55.0458 C.ar    1  ZINC000518234532    0.1000
     16 F16        -0.0827    5.0872   54.0576 F       1  ZINC000518234532   -0.1400
     17 C17        -4.7886    2.8699   51.5237 C.ar    1  ZINC000518234532   -0.0600
     18 C18        -5.7087    2.5711   52.5104 C.ar    1  ZINC000518234532   -0.1100
     19 C19        -6.6251    1.5475   52.3195 C.ar    1  ZINC000518234532    0.0800
     20 C20        -6.6171    0.8248   51.1325 C.ar    1  ZINC000518234532    0.0600
     21 C21        -5.6905    1.1284   50.1462 C.ar    1  ZINC000518234532   -0.0800
     22 C22        -4.7820    2.1525   50.3410 C.ar    1  ZINC000518234532   -0.0800
     23 Br23       -3.5207    2.5647   48.9938 Br      1  ZINC000518234532   -0.0300
     24 O24        -7.5127   -0.1782   50.9217 O.3     1  ZINC000518234532   -0.3000
     25 C25        -8.1799   -0.6986   52.0767 C.3     1  ZINC000518234532    0.0200
     26 C26        -8.6638    0.4844   52.9260 C.3     1  ZINC000518234532    0.0200
     27 O27        -7.5226    1.2625   53.3026 O.3     1  ZINC000518234532   -0.3000
     28 H28        -3.5907    6.0644   51.2168 H       1  ZINC000518234532    0.0700
     29 H29        -4.4372    5.0831   49.9967 H       1  ZINC000518234532    0.0700
     30 H30        -5.2669    5.5391   51.5039 H       1  ZINC000518234532    0.0600
     31 H31        -4.2894    4.7252   53.6609 H       1  ZINC000518234532    0.4000
     32 H32        -3.6296    5.7198   55.2995 H       1  ZINC000518234532    0.0700
     33 H33        -2.4866    5.6293   56.6610 H       1  ZINC000518234532    0.0700
     34 H34        -1.9036    6.0669   55.0372 H       1  ZINC000518234532    0.0700
     35 H35        -1.5918    2.2371   57.2007 H       1  ZINC000518234532    0.1300
     36 H36         0.7022    1.6372   57.8633 H       1  ZINC000518234532    0.1300
     37 H37         2.6243    2.6733   56.7268 H       1  ZINC000518234532    0.1300
     38 H38         2.2543    4.3109   54.9258 H       1  ZINC000518234532    0.1400
     39 H39        -5.7142    3.1349   53.4316 H       1  ZINC000518234532    0.1400
     40 H40        -5.6808    0.5669   49.2237 H       1  ZINC000518234532    0.1500
     41 H41        -9.0330   -1.3025   51.7674 H       1  ZINC000518234532    0.1300
     42 H42        -7.4879   -1.3090   52.6569 H       1  ZINC000518234532    0.0800
     43 H43        -9.3511    1.0982   52.3437 H       1  ZINC000518234532    0.0800
     44 H44        -9.1673    0.1141   53.8190 H       1  ZINC000518234532    0.1300
@<TRIPOS>BOND
     1     1     2    1
     2     1    28    1
     3     1    29    1
     4     1    30    1
     5     2     3    1
     6     2     4    1
     7     2    17    1
     8     4     5   am
     9     4    31    1
    10     5     6    2
    11     5     7    1
    12     7     8    1
    13     7     9    1
    14     7    10    1
    15     9    32    1
    16     9    33    1
    17     9    34    1
    18    10    15   ar
    19    10    11   ar
    20    11    12   ar
    21    11    35    1
    22    12    13   ar
    23    12    36    1
    24    13    14   ar
    25    13    37    1
    26    14    15   ar
    27    14    38    1
    28    15    16    1
    29    17    22   ar
    30    17    18   ar
    31    18    19   ar
    32    18    39    1
    33    19    27    1
    34    19    20   ar
    35    20    21   ar
    36    20    24    1
    37    21    22   ar
    38    21    40    1
    39    22    23    1
    40    24    25    1
    41    25    26    1
    42    25    41    1
    43    25    42    1
    44    26    27    1
    45    26    43    1
    46    26    44    1
@<TRIPOS>SUBSTRUCTURE
     1 ZINC000518234532        1 TEMP              0 ****  ****    0 ROOT


##########                                Name:    ZINC000840464592
##########                DOCK_Rotatable_Bonds:                  10
##########                         Heavy_Atoms:                  26
##########                    Molecular_Weight:             360.497
##########                DOCK_Rotatable_Bonds:                  10
##########                       Formal_Charge:          -0.0399996
##########                     HBond_Acceptors:                   5
##########                        HBond_Donors:                   1
##########                         Heavy_Atoms:                  26
##########                          Grid_Score:          -30.406960
##########                     Grid_vdw_energy:          -30.029396
##########                      Grid_es_energy:           -0.377564
##########           Internal_energy_repulsive:           79.602448

@<TRIPOS>MOLECULE
ZINC000840464592
 58 59 1 0 0
SMALL
USER_CHARGES


@<TRIPOS>ATOM
      1 C1          2.9253   -0.3468   49.4428 C.3     1  ZINC000840464592   -0.1500
      2 C2          3.2139    0.8683   50.3267 C.3     1  ZINC000840464592   -0.1300
      3 C3          1.9669    1.2124   51.1435 C.3     1  ZINC000840464592   -0.1200
      4 C4          0.9905    2.0065   50.2735 C.3     1  ZINC000840464592   -0.1200
      5 C5         -0.0268    2.7180   51.1678 C.3     1  ZINC000840464592   -0.1200
      6 C6         -1.0922    3.3865   50.2965 C.3     1  ZINC000840464592    0.0600
      7 O7         -2.3001    2.6251   50.3530 O.3     1  ZINC000840464592   -0.3600
      8 C8         -3.2396    2.9485   49.3260 C.3     1  ZINC000840464592    0.0800
      9 H9         -3.1795    4.0133   49.1007 H       1  ZINC000840464592    0.0800
     10 C10        -2.9166    2.1417   48.0667 C.3     1  ZINC000840464592   -0.1800
     11 C11        -4.6319    2.6121   49.7946 C.2     1  ZINC000840464592    0.5200
     12 O12        -5.2128    1.6538   49.3309 O.2     1  ZINC000840464592   -0.5000
     13 N13        -5.2314    3.3762   50.7290 N.am    1  ZINC000840464592   -0.6000
     14 C14        -4.5280    4.5295   51.2847 C.3     1  ZINC000840464592    0.0900
     15 C15        -4.2849    4.3682   52.7810 C.3     1  ZINC000840464592   -0.1600
     16 C16        -5.6188    4.2905   53.5270 C.3     1  ZINC000840464592    0.0800
     17 N17        -6.0546    2.8909   53.5850 N.am    1  ZINC000840464592   -0.7200
     18 C18        -6.4889    2.2689   52.4775 C.2     1  ZINC000840464592    0.5100
     19 O19        -6.8003    1.0973   52.5147 O.2     1  ZINC000840464592   -0.5200
     20 C20        -6.5889    3.0486   51.1776 C.3     1  ZINC000840464592    0.1400
     21 H21        -7.0877    2.4400   50.4236 H       1  ZINC000840464592    0.1300
     22 C22        -7.3863    4.3335   51.4100 C.3     1  ZINC000840464592   -0.1000
     23 C23        -8.4356    4.4744   50.3375 C.ar    1  ZINC000840464592   -0.0900
     24 C24        -8.0872    4.9531   49.0883 C.ar    1  ZINC000840464592   -0.1100
     25 C25        -9.0496    5.0823   48.1045 C.ar    1  ZINC000840464592   -0.1200
     26 C26       -10.3603    4.7324   48.3697 C.ar    1  ZINC000840464592   -0.1200
     27 C27       -10.7086    4.2528   49.6185 C.ar    1  ZINC000840464592   -0.1200
     28 C28        -9.7453    4.1196   50.6010 C.ar    1  ZINC000840464592   -0.1100
     29 H29         2.1008   -0.1174   48.7678 H       1  ZINC000840464592    0.0500
     30 H30         3.8138   -0.5919   48.8608 H       1  ZINC000840464592    0.0500
     31 H31         2.6559   -1.1965   50.0700 H       1  ZINC000840464592    0.0500
     32 H32         4.0386    0.6389   51.0016 H       1  ZINC000840464592    0.0600
     33 H33         3.4834    1.7181   49.6995 H       1  ZINC000840464592    0.0600
     34 H34         1.4881    0.2931   51.4806 H       1  ZINC000840464592    0.0600
     35 H35         2.2528    1.8114   52.0081 H       1  ZINC000840464592    0.0600
     36 H36         1.5410    2.7450   49.6907 H       1  ZINC000840464592    0.0600
     37 H37         0.4690    1.3269   49.5995 H       1  ZINC000840464592    0.0600
     38 H38        -0.5008    1.9918   51.8281 H       1  ZINC000840464592    0.0700
     39 H39         0.4813    3.4750   51.7651 H       1  ZINC000840464592    0.0700
     40 H40        -1.2811    4.3952   50.6635 H       1  ZINC000840464592    0.0500
     41 H41        -0.7410    3.4346   49.2658 H       1  ZINC000840464592    0.0500
     42 H42        -3.6744    2.3345   47.3074 H       1  ZINC000840464592    0.0800
     43 H43        -1.9384    2.4369   47.6871 H       1  ZINC000840464592    0.0700
     44 H44        -2.9069    1.0790   48.3087 H       1  ZINC000840464592    0.0800
     45 H45        -3.5692    4.6399   50.7780 H       1  ZINC000840464592    0.1000
     46 H46        -5.1243    5.4260   51.1153 H       1  ZINC000840464592    0.0800
     47 H47        -3.7179    3.4543   52.9585 H       1  ZINC000840464592    0.0800
     48 H48        -3.7148    5.2216   53.1484 H       1  ZINC000840464592    0.1000
     49 H49        -5.4935    4.6755   54.5391 H       1  ZINC000840464592    0.0900
     50 H50        -6.3663    4.8835   53.0000 H       1  ZINC000840464592    0.1000
     51 H51        -6.0285    2.4121   54.4282 H       1  ZINC000840464592    0.4000
     52 H52        -7.8686    4.2904   52.3866 H       1  ZINC000840464592    0.0900
     53 H53        -6.7134    5.1902   51.3747 H       1  ZINC000840464592    0.1000
     54 H54        -7.0631    5.2266   48.8811 H       1  ZINC000840464592    0.1200
     55 H55        -8.7775    5.4570   47.1288 H       1  ZINC000840464592    0.1200
     56 H56       -11.1125    4.8340   47.6013 H       1  ZINC000840464592    0.1200
     57 H57       -11.7328    3.9798   49.8258 H       1  ZINC000840464592    0.1200
     58 H58       -10.0174    3.7449   51.5767 H       1  ZINC000840464592    0.1200
@<TRIPOS>BOND
     1     1     2    1
     2     1    29    1
     3     1    30    1
     4     1    31    1
     5     2     3    1
     6     2    32    1
     7     2    33    1
     8     3     4    1
     9     3    34    1
    10     3    35    1
    11     4     5    1
    12     4    36    1
    13     4    37    1
    14     5     6    1
    15     5    38    1
    16     5    39    1
    17     6     7    1
    18     6    40    1
    19     6    41    1
    20     7     8    1
    21     8     9    1
    22     8    10    1
    23     8    11    1
    24    10    42    1
    25    10    43    1
    26    10    44    1
    27    11    12    2
    28    11    13   am
    29    13    20    1
    30    13    14    1
    31    14    15    1
    32    14    45    1
    33    14    46    1
    34    15    16    1
    35    15    47    1
    36    15    48    1
    37    16    17    1
    38    16    49    1
    39    16    50    1
    40    17    18   am
    41    17    51    1
    42    18    19    2
    43    18    20    1
    44    20    21    1
    45    20    22    1
    46    22    23    1
    47    22    52    1
    48    22    53    1
    49    23    28   ar
    50    23    24   ar
    51    24    25   ar
    52    24    54    1
    53    25    26   ar
    54    25    55    1
    55    26    27   ar
    56    26    56    1
    57    27    28   ar
    58    27    57    1
    59    28    58    1
@<TRIPOS>SUBSTRUCTURE
     1 ZINC000840464592        1 TEMP              0 ****  ****    0 ROOT


##########                                Name:    ZINC001400108193
##########                DOCK_Rotatable_Bonds:                   9
##########                         Heavy_Atoms:                  25
##########                    Molecular_Weight:              344.41
##########                DOCK_Rotatable_Bonds:                   9
##########                       Formal_Charge:           0.0200001
##########                     HBond_Acceptors:                   6
##########                        HBond_Donors:                   2
##########                         Heavy_Atoms:                  25
##########                          Grid_Score:          -30.398039
##########                     Grid_vdw_energy:          -28.677719
##########                      Grid_es_energy:           -1.720321
##########           Internal_energy_repulsive:            4.973496

@<TRIPOS>MOLECULE
ZINC001400108193
 49 50 1 0 0
SMALL
USER_CHARGES


@<TRIPOS>ATOM
      1 C1        -11.6815   -2.5671   57.2199 C.3     1  ZINC001400108193   -0.0800
      2 C2        -10.8212   -1.5672   56.4910 C.2     1  ZINC001400108193   -0.0100
      3 C3         -9.8861   -0.7878   57.0555 C.2     1  ZINC001400108193   -0.1600
      4 C4         -9.3151    0.0137   55.9632 C.2     1  ZINC001400108193   -0.2300
      5 C5         -8.2486    1.0258   56.0643 C.2     1  ZINC001400108193    0.5900
      6 O6         -7.8101    1.3404   57.1541 O.2     1  ZINC001400108193   -0.5300
      7 N7         -7.7590    1.6026   54.9489 N.am    1  ZINC001400108193   -0.7300
      8 C8         -6.7000    2.6099   55.0495 C.3     1  ZINC001400108193    0.1100
      9 C9         -6.5663    3.3445   53.7141 C.3     1  ZINC001400108193    0.1300
     10 H10        -7.5486    3.4388   53.2513 H       1  ZINC001400108193    0.1000
     11 C11        -5.9799    4.7371   53.9544 C.3     1  ZINC001400108193   -0.1600
     12 N12        -5.6793    2.5877   52.8271 N.am    1  ZINC001400108193   -0.7300
     13 C13        -5.8054    2.7023   51.4902 C.2     1  ZINC001400108193    0.5200
     14 O14        -6.6521    3.4332   51.0214 O.2     1  ZINC001400108193   -0.5100
     15 C15        -4.8942    1.9224   50.5777 C.3     1  ZINC001400108193    0.0700
     16 H16        -4.0571    1.5259   51.1524 H       1  ZINC001400108193    0.1000
     17 C17        -5.6725    0.7663   49.9464 C.3     1  ZINC001400108193   -0.1800
     18 O18        -4.4006    2.7823   49.5487 O.3     1  ZINC001400108193   -0.2800
     19 C19        -3.1154    2.5926   49.1498 C.ar    1  ZINC001400108193    0.1200
     20 C20        -2.8455    2.1513   47.8625 C.ar    1  ZINC001400108193   -0.2100
     21 C21        -1.5382    1.9597   47.4593 C.ar    1  ZINC001400108193   -0.0800
     22 C22        -0.4995    2.2022   48.3390 C.ar    1  ZINC001400108193   -0.1200
     23 C23         0.9255    1.9863   47.8984 C.3     1  ZINC001400108193   -0.1100
     24 C24        -0.7657    2.6471   49.6208 C.ar    1  ZINC001400108193   -0.0800
     25 C25        -2.0712    2.8404   50.0289 C.ar    1  ZINC001400108193   -0.1400
     26 C26        -9.9830   -0.3708   54.8375 C.2     1  ZINC001400108193    0.0200
     27 O27       -10.8680   -1.3142   55.1738 O.3     1  ZINC001400108193   -0.1700
     28 H28       -12.5952   -2.0802   57.5605 H       1  ZINC001400108193    0.0900
     29 H29       -11.9354   -3.3865   56.5473 H       1  ZINC001400108193    0.0800
     30 H30       -11.1361   -2.9579   58.0789 H       1  ZINC001400108193    0.0900
     31 H31        -9.6093   -0.7560   58.0988 H       1  ZINC001400108193    0.1600
     32 H32        -8.1079    1.3509   54.0795 H       1  ZINC001400108193    0.4000
     33 H33        -5.7560    2.1217   55.2918 H       1  ZINC001400108193    0.0800
     34 H34        -6.9513    3.3242   55.8335 H       1  ZINC001400108193    0.0900
     35 H35        -5.8847    5.2604   53.0031 H       1  ZINC001400108193    0.0700
     36 H36        -6.6400    5.3002   54.6144 H       1  ZINC001400108193    0.0700
     37 H37        -4.9976    4.6428   54.4172 H       1  ZINC001400108193    0.0600
     38 H38        -5.0013    2.0040   53.2020 H       1  ZINC001400108193    0.4000
     39 H39        -6.0490    0.1103   50.7312 H       1  ZINC001400108193    0.0800
     40 H40        -6.5095    1.1628   49.3716 H       1  ZINC001400108193    0.0800
     41 H41        -5.0134    0.2021   49.2864 H       1  ZINC001400108193    0.0800
     42 H42        -3.6567    1.9574   47.1765 H       1  ZINC001400108193    0.1300
     43 H43        -1.3275    1.6158   46.4574 H       1  ZINC001400108193    0.1300
     44 H44         1.3163    2.9083   47.4679 H       1  ZINC001400108193    0.0700
     45 H45         1.5322    1.7009   48.7577 H       1  ZINC001400108193    0.0700
     46 H46         0.9585    1.1937   47.1509 H       1  ZINC001400108193    0.0700
     47 H47         0.0476    2.8398   50.3048 H       1  ZINC001400108193    0.1300
     48 H48        -2.2787    3.1843   51.0314 H       1  ZINC001400108193    0.1300
     49 H49        -9.8219    0.0188   53.8432 H       1  ZINC001400108193    0.2100
@<TRIPOS>BOND
     1     1     2    1
     2     1    28    1
     3     1    29    1
     4     1    30    1
     5     2    27    1
     6     2     3    2
     7     3     4    1
     8     3    31    1
     9     4     5    1
    10     4    26    2
    11     5     6    2
    12     5     7   am
    13     7     8    1
    14     7    32    1
    15     8     9    1
    16     8    33    1
    17     8    34    1
    18     9    10    1
    19     9    11    1
    20     9    12    1
    21    11    35    1
    22    11    36    1
    23    11    37    1
    24    12    13   am
    25    12    38    1
    26    13    14    2
    27    13    15    1
    28    15    16    1
    29    15    17    1
    30    15    18    1
    31    17    39    1
    32    17    40    1
    33    17    41    1
    34    18    19    1
    35    19    25   ar
    36    19    20   ar
    37    20    21   ar
    38    20    42    1
    39    21    22   ar
    40    21    43    1
    41    22    23    1
    42    22    24   ar
    43    23    44    1
    44    23    45    1
    45    23    46    1
    46    24    25   ar
    47    24    47    1
    48    25    48    1
    49    26    27    1
    50    26    49    1
@<TRIPOS>SUBSTRUCTURE
     1 ZINC001400108193        1 TEMP              0 ****  ****    0 ROOT


##########                                Name:    ZINC000549381790
##########                DOCK_Rotatable_Bonds:                   7
##########                         Heavy_Atoms:                  23
##########                    Molecular_Weight:             337.846
##########                DOCK_Rotatable_Bonds:                   7
##########                       Formal_Charge:           0.0300006
##########                     HBond_Acceptors:                   5
##########                        HBond_Donors:                   0
##########                         Heavy_Atoms:                  23
##########                          Grid_Score:          -30.394266
##########                     Grid_vdw_energy:          -30.261330
##########                      Grid_es_energy:           -0.132937
##########           Internal_energy_repulsive:           86.359406

@<TRIPOS>MOLECULE
ZINC000549381790
 47 49 1 0 0
SMALL
USER_CHARGES


@<TRIPOS>ATOM
      1 C1         -8.0181    3.8052   51.1385 C.3     1  ZINC000549381790   -0.1400
      2 C2         -7.5851    2.6329   52.0212 C.3     1  ZINC000549381790    0.1500
      3 H3         -7.3276    2.9993   53.0149 H       1  ZINC000549381790    0.0700
      4 C4         -8.7296    1.6202   52.1279 C.3     1  ZINC000549381790   -0.1300
      5 C5         -8.2449    0.3876   52.8946 C.3     1  ZINC000549381790   -0.1200
      6 C6         -7.0900   -0.2673   52.1334 C.3     1  ZINC000549381790   -0.1400
      7 C7         -5.9270    0.7240   52.0268 C.3     1  ZINC000549381790    0.1000
      8 N8         -6.4181    1.9706   51.4228 N.am    1  ZINC000549381790   -0.6100
      9 C9         -5.8126    2.4932   50.3381 C.2     1  ZINC000549381790    0.5200
     10 O10        -6.2276    3.5225   49.8489 O.2     1  ZINC000549381790   -0.5000
     11 C11        -4.6201    1.7984   49.7329 C.3     1  ZINC000549381790    0.0400
     12 O12        -3.9999    2.6618   48.7777 O.3     1  ZINC000549381790   -0.2800
     13 C13        -2.6457    2.5952   48.6733 C.ar    1  ZINC000549381790    0.1100
     14 C14        -2.0634    2.0836   47.5234 C.ar    1  ZINC000549381790   -0.1700
     15 C15        -0.6874    2.0162   47.4165 C.ar    1  ZINC000549381790   -0.1600
     16 C16         0.1117    2.4597   48.4591 C.ar    1  ZINC000549381790    0.1100
     17 O17         1.4661    2.3932   48.3537 O.3     1  ZINC000549381790   -0.3000
     18 C18         2.0458    1.0910   48.2528 C.3     1  ZINC000549381790    0.0900
     19 C19         2.4330    0.5957   49.6477 C.3     1  ZINC000549381790   -0.1600
     20 C20         2.1567   -0.8725   49.9778 C.3     1  ZINC000549381790   -0.1700
     21 C21         3.5927   -0.3973   49.7480 C.3     1  ZINC000549381790   -0.1700
     22 C22        -0.4708    2.9719   49.6104 C.ar    1  ZINC000549381790   -0.0300
     23 Cl23        0.5293    3.5278   50.9160 Cl      1  ZINC000549381790   -0.0400
     24 C24        -1.8469    3.0445   49.7146 C.ar    1  ZINC000549381790   -0.1000
     25 H25        -8.1785    3.4529   50.1195 H       1  ZINC000549381790    0.0600
     26 H26        -8.9443    4.2292   51.5263 H       1  ZINC000549381790    0.0500
     27 H27        -7.2401    4.5685   51.1409 H       1  ZINC000549381790    0.0800
     28 H28        -9.5673    2.0727   52.6586 H       1  ZINC000549381790    0.0800
     29 H29        -9.0484    1.3248   51.1283 H       1  ZINC000549381790    0.0700
     30 H30        -7.9033    0.6874   53.8854 H       1  ZINC000549381790    0.0700
     31 H31        -9.0646   -0.3241   52.9934 H       1  ZINC000549381790    0.0700
     32 H32        -6.7607   -1.1583   52.6680 H       1  ZINC000549381790    0.0800
     33 H33        -7.4242   -0.5448   51.1338 H       1  ZINC000549381790    0.0700
     34 H34        -5.5325    0.9329   53.0212 H       1  ZINC000549381790    0.0800
     35 H35        -5.1413    0.2997   51.4015 H       1  ZINC000549381790    0.0800
     36 H36        -3.9054    1.5528   50.5184 H       1  ZINC000549381790    0.0900
     37 H37        -4.9450    0.8831   49.2383 H       1  ZINC000549381790    0.0900
     38 H38        -2.6855    1.7375   46.7113 H       1  ZINC000549381790    0.1400
     39 H39        -0.2343    1.6176   46.5208 H       1  ZINC000549381790    0.1400
     40 H40         1.3233    0.4047   47.8112 H       1  ZINC000549381790    0.0700
     41 H41         2.9349    1.1369   47.6238 H       1  ZINC000549381790    0.0700
     42 H42         2.3216    1.3224   50.4523 H       1  ZINC000549381790    0.1200
     43 H43         1.8633   -1.1119   50.9999 H       1  ZINC000549381790    0.1000
     44 H44         1.6990   -1.4854   49.2014 H       1  ZINC000549381790    0.1000
     45 H45         4.0799   -0.6975   48.8204 H       1  ZINC000549381790    0.1000
     46 H46         4.2440   -0.3239   50.6189 H       1  ZINC000549381790    0.1000
     47 H47        -2.3005    3.4429   50.6100 H       1  ZINC000549381790    0.1500
@<TRIPOS>BOND
     1     1     2    1
     2     1    25    1
     3     1    26    1
     4     1    27    1
     5     2     3    1
     6     2     8    1
     7     2     4    1
     8     4     5    1
     9     4    28    1
    10     4    29    1
    11     5     6    1
    12     5    30    1
    13     5    31    1
    14     6     7    1
    15     6    32    1
    16     6    33    1
    17     7     8    1
    18     7    34    1
    19     7    35    1
    20     8     9   am
    21     9    10    2
    22     9    11    1
    23    11    12    1
    24    11    36    1
    25    11    37    1
    26    12    13    1
    27    13    24   ar
    28    13    14   ar
    29    14    15   ar
    30    14    38    1
    31    15    16   ar
    32    15    39    1
    33    16    17    1
    34    16    22   ar
    35    17    18    1
    36    18    19    1
    37    18    40    1
    38    18    41    1
    39    19    21    1
    40    19    20    1
    41    19    42    1
    42    20    21    1
    43    20    43    1
    44    20    44    1
    45    21    45    1
    46    21    46    1
    47    22    23    1
    48    22    24   ar
    49    24    47    1
@<TRIPOS>SUBSTRUCTURE
     1 ZINC000549381790        1 TEMP              0 ****  ****    0 ROOT


##########                                Name:    ZINC000623581528
##########                DOCK_Rotatable_Bonds:                   5
##########                         Heavy_Atoms:                  26
##########                    Molecular_Weight:             355.369
##########                DOCK_Rotatable_Bonds:                   5
##########                       Formal_Charge:        -4.47035e-07
##########                     HBond_Acceptors:                   7
##########                        HBond_Donors:                   2
##########                         Heavy_Atoms:                  26
##########                          Grid_Score:          -30.389418
##########                     Grid_vdw_energy:          -29.332952
##########                      Grid_es_energy:           -1.056465
##########           Internal_energy_repulsive:            4.439970

@<TRIPOS>MOLECULE
ZINC000623581528
 44 47 1 0 0
SMALL
USER_CHARGES


@<TRIPOS>ATOM
      1 C1         -2.8874    3.5651   50.2279 C.3     1  ZINC000623581528    0.1000
      2 N2         -3.7747    2.4184   50.0174 N.am    1  ZINC000623581528   -0.5500
      3 C3         -3.6625    1.4917   49.0452 C.2     1  ZINC000623581528    0.6300
      4 O4         -2.7979    1.4719   48.1905 O.2     1  ZINC000623581528   -0.4800
      5 O5         -4.6531    0.5941   49.1667 O.3     1  ZINC000623581528   -0.2300
      6 C6         -5.4285    0.9273   50.2274 C.ar    1  ZINC000623581528    0.0400
      7 C7         -6.5593    0.3554   50.7882 C.ar    1  ZINC000623581528   -0.0800
      8 C8         -7.1470    0.9345   51.8965 C.ar    1  ZINC000623581528   -0.0900
      9 C9         -6.6121    2.0843   52.4500 C.ar    1  ZINC000623581528   -0.0900
     10 C10        -7.2604    2.7083   53.6588 C.3     1  ZINC000623581528    0.1800
     11 N11        -7.1054    1.8168   54.8110 N.am    1  ZINC000623581528   -0.7400
     12 C12        -8.0721    1.7524   55.7479 C.2     1  ZINC000623581528    0.7100
     13 O13        -9.0721    2.4352   55.6378 O.2     1  ZINC000623581528   -0.5800
     14 N14        -7.9302    0.9310   56.8070 N.am    1  ZINC000623581528   -0.7300
     15 C15        -8.9817    0.8596   57.8246 C.3     1  ZINC000623581528    0.2000
     16 H16        -9.4119    1.8468   57.9930 H       1  ZINC000623581528    0.1000
     17 C17        -8.4139    0.2909   59.1424 C.3     1  ZINC000623581528   -0.1300
     18 C18        -8.6968   -1.2197   59.0005 C.3     1  ZINC000623581528   -0.0800
     19 C19        -9.8927   -1.3139   58.0774 C.ar    1  ZINC000623581528   -0.1000
     20 C20       -10.7678   -2.3623   57.8474 C.ar    1  ZINC000623581528   -0.0800
     21 C21       -11.8039   -2.2186   56.9457 C.ar    1  ZINC000623581528   -0.1400
     22 C22       -11.9688   -1.0225   56.2686 C.ar    1  ZINC000623581528    0.0900
     23 F23       -12.9817   -0.8784   55.3862 F       1  ZINC000623581528   -0.1400
     24 C24       -11.0946    0.0255   56.4974 C.ar    1  ZINC000623581528   -0.1200
     25 C25       -10.0577   -0.1168   57.4003 C.ar    1  ZINC000623581528   -0.0900
     26 C26        -5.4848    2.6618   51.8976 C.ar    1  ZINC000623581528   -0.0800
     27 C27        -4.8861    2.0830   50.7901 C.ar    1  ZINC000623581528    0.0700
     28 H28        -2.0707    3.2759   50.8893 H       1  ZINC000623581528    0.0800
     29 H29        -2.4814    3.8909   49.2702 H       1  ZINC000623581528    0.0900
     30 H30        -3.4500    4.3815   50.6806 H       1  ZINC000623581528    0.0900
     31 H31        -6.9808   -0.5416   50.3594 H       1  ZINC000623581528    0.1500
     32 H32        -8.0282    0.4878   52.3326 H       1  ZINC000623581528    0.1500
     33 H33        -6.7845    3.6652   53.8731 H       1  ZINC000623581528    0.0800
     34 H34        -8.3208    2.8661   53.4615 H       1  ZINC000623581528    0.0800
     35 H35        -6.3071    1.2730   54.8994 H       1  ZINC000623581528    0.4000
     36 H36        -7.1319    0.3872   56.8956 H       1  ZINC000623581528    0.4000
     37 H37        -7.3429    0.4793   59.2160 H       1  ZINC000623581528    0.0900
     38 H38        -8.9412    0.7047   60.0019 H       1  ZINC000623581528    0.0900
     39 H39        -7.8378   -1.7256   58.5595 H       1  ZINC000623581528    0.0800
     40 H40        -8.9339   -1.6530   59.9722 H       1  ZINC000623581528    0.0800
     41 H41       -10.6397   -3.2956   58.3754 H       1  ZINC000623581528    0.1300
     42 H42       -12.4844   -3.0383   56.7689 H       1  ZINC000623581528    0.1400
     43 H43       -11.2229    0.9588   55.9693 H       1  ZINC000623581528    0.1400
     44 H44        -5.0686    3.5592   52.3310 H       1  ZINC000623581528    0.1400
@<TRIPOS>BOND
     1     1     2    1
     2     1    28    1
     3     1    29    1
     4     1    30    1
     5     2    27    1
     6     2     3   am
     7     3     4    2
     8     3     5    1
     9     5     6    1
    10     6    27   ar
    11     6     7   ar
    12     7     8   ar
    13     7    31    1
    14     8     9   ar
    15     8    32    1
    16     9    10    1
    17     9    26   ar
    18    10    11    1
    19    10    33    1
    20    10    34    1
    21    11    12   am
    22    11    35    1
    23    12    13    2
    24    12    14   am
    25    14    15    1
    26    14    36    1
    27    15    16    1
    28    15    25    1
    29    15    17    1
    30    17    18    1
    31    17    37    1
    32    17    38    1
    33    18    19    1
    34    18    39    1
    35    18    40    1
    36    19    25   ar
    37    19    20   ar
    38    20    21   ar
    39    20    41    1
    40    21    22   ar
    41    21    42    1
    42    22    23    1
    43    22    24   ar
    44    24    25   ar
    45    24    43    1
    46    26    27   ar
    47    26    44    1
@<TRIPOS>SUBSTRUCTURE
     1 ZINC000623581528        1 TEMP              0 ****  ****    0 ROOT


##########                                Name:    ZINC000065993627
##########                DOCK_Rotatable_Bonds:                   7
##########                         Heavy_Atoms:                  28
##########                    Molecular_Weight:             382.462
##########                DOCK_Rotatable_Bonds:                   7
##########                       Formal_Charge:          -0.0200002
##########                     HBond_Acceptors:                   7
##########                        HBond_Donors:                   2
##########                         Heavy_Atoms:                  28
##########                          Grid_Score:          -30.385105
##########                     Grid_vdw_energy:          -30.149883
##########                      Grid_es_energy:           -0.235222
##########           Internal_energy_repulsive:           13.165609

@<TRIPOS>MOLECULE
ZINC000065993627
 54 56 1 0 0
SMALL
USER_CHARGES


@<TRIPOS>ATOM
      1 C1        -13.6329    0.5612   47.1347 C.3     1  ZINC000065993627   -0.1200
      2 C2        -14.5523   -0.1315   48.1072 C.ar    1  ZINC000065993627   -0.0700
      3 C3        -15.3735   -1.1527   47.6728 C.ar    1  ZINC000065993627   -0.1800
      4 C4        -16.2210   -1.7913   48.5692 C.ar    1  ZINC000065993627    0.2000
      5 N5        -17.0531   -2.8265   48.1293 N.pl3   1  ZINC000065993627   -0.6400
      6 C6        -18.5086   -2.6686   48.1814 C.3     1  ZINC000065993627    0.1000
      7 C7        -16.4689   -4.0682   47.6163 C.3     1  ZINC000065993627    0.0900
      8 C8        -16.2419   -1.4023   49.9020 C.ar    1  ZINC000065993627   -0.1800
      9 C9        -15.4202   -0.3808   50.3360 C.ar    1  ZINC000065993627   -0.0800
     10 C10       -14.5693    0.2534   49.4412 C.ar    1  ZINC000065993627    0.1100
     11 N11       -13.7349    1.2902   49.8821 N.am    1  ZINC000065993627   -0.6800
     12 C12       -12.9265    1.0994   50.9435 C.2     1  ZINC000065993627    0.7000
     13 O13       -12.9207    0.0281   51.5186 O.2     1  ZINC000065993627   -0.5700
     14 N14       -12.1244    2.0961   51.3673 N.am    1  ZINC000065993627   -0.7400
     15 C15       -11.2443    1.8882   52.5200 C.3     1  ZINC000065993627    0.2100
     16 H16       -11.4916    0.9413   52.9998 H       1  ZINC000065993627    0.1000
     17 C17       -11.4340    3.0312   53.5192 C.3     1  ZINC000065993627   -0.1600
     18 C18        -9.8102    1.8578   52.0580 C.ar    1  ZINC000065993627   -0.1200
     19 C19        -9.2952    2.9190   51.3364 C.ar    1  ZINC000065993627   -0.0800
     20 C20        -7.9812    2.8942   50.9114 C.ar    1  ZINC000065993627   -0.1500
     21 C21        -7.1772    1.8020   51.2097 C.ar    1  ZINC000065993627    0.1800
     22 N22        -5.8452    1.7739   50.7810 N.am    1  ZINC000065993627   -0.5700
     23 C23        -4.8645    2.8546   50.9646 C.3     1  ZINC000065993627    0.0600
     24 C24        -3.5824    2.3013   50.3133 C.3     1  ZINC000065993627    0.0400
     25 O25        -3.9709    0.9807   49.8357 O.3     1  ZINC000065993627   -0.3200
     26 C26        -5.2539    0.7557   50.1411 C.2     1  ZINC000065993627    0.6400
     27 O27        -5.8325   -0.2741   49.8563 O.2     1  ZINC000065993627   -0.5000
     28 C28        -7.6973    0.7378   51.9345 C.ar    1  ZINC000065993627   -0.1500
     29 C29        -9.0105    0.7713   52.3614 C.ar    1  ZINC000065993627   -0.0800
     30 H30       -12.6748    0.0421   47.1076 H       1  ZINC000065993627    0.0700
     31 H31       -14.0802    0.5502   46.1408 H       1  ZINC000065993627    0.0700
     32 H32       -13.4785    1.5924   47.4523 H       1  ZINC000065993627    0.0600
     33 H33       -15.3574   -1.4548   46.6361 H       1  ZINC000065993627    0.1200
     34 H34       -18.8607   -2.2336   47.2461 H       1  ZINC000065993627    0.0500
     35 H35       -18.9748   -3.6431   48.3270 H       1  ZINC000065993627    0.0700
     36 H36       -18.7734   -2.0118   49.0101 H       1  ZINC000065993627    0.0700
     37 H37       -15.3860   -4.0371   47.7369 H       1  ZINC000065993627    0.0800
     38 H38       -16.8721   -4.9155   48.1707 H       1  ZINC000065993627    0.0500
     39 H39       -16.7138   -4.1756   46.5596 H       1  ZINC000065993627    0.0500
     40 H40       -16.9010   -1.8984   50.5991 H       1  ZINC000065993627    0.1300
     41 H41       -15.4365   -0.0782   51.3727 H       1  ZINC000065993627    0.1500
     42 H42       -13.7394    2.1448   49.4233 H       1  ZINC000065993627    0.4000
     43 H43       -12.1298    2.9511   50.9094 H       1  ZINC000065993627    0.4000
     44 H44       -12.4713    3.0531   53.8534 H       1  ZINC000065993627    0.0700
     45 H45       -10.7792    2.8765   54.3768 H       1  ZINC000065993627    0.0700
     46 H46       -11.1867    3.9781   53.0394 H       1  ZINC000065993627    0.0600
     47 H47        -9.9212    3.7680   51.1044 H       1  ZINC000065993627    0.1300
     48 H48        -7.5796    3.7231   50.3476 H       1  ZINC000065993627    0.1600
     49 H49        -5.1927    3.7603   50.4548 H       1  ZINC000065993627    0.1000
     50 H50        -4.7023    3.0483   52.0249 H       1  ZINC000065993627    0.1000
     51 H51        -3.2735    2.9331   49.4805 H       1  ZINC000065993627    0.1100
     52 H52        -2.7832    2.2212   51.0502 H       1  ZINC000065993627    0.1100
     53 H53        -7.0746   -0.1131   52.1677 H       1  ZINC000065993627    0.1300
     54 H54        -9.4155   -0.0559   52.9254 H       1  ZINC000065993627    0.1300
@<TRIPOS>BOND
     1     1     2    1
     2     1    30    1
     3     1    31    1
     4     1    32    1
     5     2    10   ar
     6     2     3   ar
     7     3     4   ar
     8     3    33    1
     9     4     5    1
    10     4     8   ar
    11     5     6    1
    12     5     7    1
    13     6    34    1
    14     6    35    1
    15     6    36    1
    16     7    37    1
    17     7    38    1
    18     7    39    1
    19     8     9   ar
    20     8    40    1
    21     9    10   ar
    22     9    41    1
    23    10    11    1
    24    11    12   am
    25    11    42    1
    26    12    13    2
    27    12    14   am
    28    14    15    1
    29    14    43    1
    30    15    16    1
    31    15    17    1
    32    15    18    1
    33    17    44    1
    34    17    45    1
    35    17    46    1
    36    18    29   ar
    37    18    19   ar
    38    19    20   ar
    39    19    47    1
    40    20    21   ar
    41    20    48    1
    42    21    22    1
    43    21    28   ar
    44    22    26   am
    45    22    23    1
    46    23    24    1
    47    23    49    1
    48    23    50    1
    49    24    25    1
    50    24    51    1
    51    24    52    1
    52    25    26    1
    53    26    27    2
    54    28    29   ar
    55    28    53    1
    56    29    54    1
@<TRIPOS>SUBSTRUCTURE
     1 ZINC000065993627        1 TEMP              0 ****  ****    0 ROOT


##########                                Name:    ZINC000342525234
##########                DOCK_Rotatable_Bonds:                   6
##########                         Heavy_Atoms:                  25
##########                    Molecular_Weight:             333.349
##########                DOCK_Rotatable_Bonds:                   6
##########                       Formal_Charge:           0.0500003
##########                     HBond_Acceptors:                   7
##########                        HBond_Donors:                   2
##########                         Heavy_Atoms:                  25
##########                          Grid_Score:          -30.370226
##########                     Grid_vdw_energy:          -30.424063
##########                      Grid_es_energy:            0.053838
##########           Internal_energy_repulsive:            3.296572

@<TRIPOS>MOLECULE
ZINC000342525234
 40 43 1 0 0
SMALL
USER_CHARGES


@<TRIPOS>ATOM
      1 O1         -8.7087    0.8970   56.5216 O.2     1  <0>        -0.5100
      2 C2         -9.5249    0.1603   56.0047 C.2     1  <0>         0.6000
      3 N3         -9.4887   -0.0585   54.6754 N.am    1  <0>        -0.7100
      4 C4         -8.4690    0.5968   53.8526 C.3     1  <0>         0.1200
      5 C5         -8.8989    0.5630   52.3846 C.3     1  <0>        -0.0900
      6 C6         -7.8023    1.1396   51.5267 C.ar    1  <0>        -0.0400
      7 C7         -6.7951    0.3310   51.1123 C.ar    1  <0>        -0.1000
      8 C8         -5.7625    0.8600   50.3083 C.ar    1  <0>         0.1100
      9 N9         -4.6713    0.3645   49.7536 N.2     1  <0>        -0.3100
     10 N10        -4.0149    1.3827   49.0527 N.pl3   1  <0>        -0.4200
     11 C11        -4.6979    2.5298   49.1663 C.2     1  <0>         0.0900
     12 C12        -5.8144    2.2845   49.9438 C.ar    1  <0>        -0.2100
     13 C13        -6.8925    3.0662   50.4109 C.ar    1  <0>        -0.0400
     14 C14        -7.8540    2.4905   51.1756 C.ar    1  <0>        -0.1500
     15 C15       -10.5575   -0.5033   56.8378 C.2     1  <0>        -0.0200
     16 N16       -10.8438   -0.2428   58.0899 N.2     1  <0>        -0.3200
     17 O17       -11.7345   -0.9485   58.5021 O.3     1  <0>         0.1400
     18 C18       -12.1752   -1.7976   57.5572 C.2     1  <0>         0.0100
     19 C19       -13.2501   -2.8032   57.7011 C.ar    1  <0>         0.0200
     20 C20       -13.6764   -3.5622   56.6051 C.ar    1  <0>        -0.1400
     21 C21       -14.6820   -4.4895   56.7844 C.ar    1  <0>         0.1100
     22 N22       -15.2392   -4.6645   57.9673 N.ar    1  <0>        -0.4800
     23 C23       -14.8675   -3.9705   59.0259 C.ar    1  <0>         0.1100
     24 C24       -13.8654   -3.0263   58.9381 C.ar    1  <0>        -0.1500
     25 C25       -11.4369   -1.5429   56.4357 C.2     1  <0>        -0.1500
     26 H26       -10.1380   -0.6497   54.2633 H       1  <0>         0.4100
     27 H27        -8.3532    1.6320   54.1736 H       1  <0>         0.0800
     28 H28        -7.5197    0.0732   53.9654 H       1  <0>         0.0800
     29 H29        -9.0902   -0.4676   52.0858 H       1  <0>         0.0900
     30 H30        -9.8070    1.1525   52.2584 H       1  <0>         0.0800
     31 H31        -6.7832   -0.7109   51.3958 H       1  <0>         0.1300
     32 H32        -3.1877    1.2741   48.5580 H       1  <0>         0.4500
     33 H33        -4.4244    3.4783   48.7283 H       1  <0>         0.1900
     34 H34        -6.9543    4.1143   50.1577 H       1  <0>         0.1300
     35 H35        -8.6764    3.0946   51.5293 H       1  <0>         0.1200
     36 H36       -13.2251   -3.4237   55.6337 H       1  <0>         0.1400
     37 H37       -15.0178   -5.0801   55.9448 H       1  <0>         0.1700
     38 H38       -15.3516   -4.1468   59.9751 H       1  <0>         0.1700
     39 H39       -13.5663   -2.4619   59.8089 H       1  <0>         0.1500
     40 H40       -11.5025   -2.0242   55.4711 H       1  <0>         0.1900
@<TRIPOS>BOND
     1     1     2    2
     2     2     3   am
     3     2    15    1
     4     3     4    1
     5     3    26    1
     6     4     5    1
     7     4    27    1
     8     4    28    1
     9     5     6    1
    10     5    29    1
    11     5    30    1
    12     6    14   ar
    13     6     7   ar
    14     7     8   ar
    15     7    31    1
    16     8    12   ar
    17     8     9    2
    18     9    10    1
    19    10    11    1
    20    10    32    1
    21    11    12    2
    22    11    33    1
    23    12    13   ar
    24    13    14   ar
    25    13    34    1
    26    14    35    1
    27    15    25    1
    28    15    16    2
    29    16    17    1
    30    17    18    1
    31    18    19    1
    32    18    25    2
    33    19    24   ar
    34    19    20   ar
    35    20    21   ar
    36    20    36    1
    37    21    22   ar
    38    21    37    1
    39    22    23   ar
    40    23    24   ar
    41    23    38    1
    42    24    39    1
    43    25    40    1
@<TRIPOS>SUBSTRUCTURE
     1 <0>         1 TEMP              0 ****  ****    0 ROOT


##########                                Name:    ZINC001272744746
##########                DOCK_Rotatable_Bonds:                   6
##########                         Heavy_Atoms:                  25
##########                    Molecular_Weight:             348.417
##########                DOCK_Rotatable_Bonds:                   6
##########                       Formal_Charge:           0.0299999
##########                     HBond_Acceptors:                   6
##########                        HBond_Donors:                   1
##########                         Heavy_Atoms:                  25
##########                          Grid_Score:          -30.353502
##########                     Grid_vdw_energy:          -28.929308
##########                      Grid_es_energy:           -1.424195
##########           Internal_energy_repulsive:           31.658461

@<TRIPOS>MOLECULE
ZINC001272744746
 50 52 1 0 0
SMALL
USER_CHARGES


@<TRIPOS>ATOM
      1 C1         -6.3454    2.7470   56.9483 C.2     1  ZINC001272744746   -0.1700
      2 C2         -6.7460    2.7572   55.7011 C.2     1  ZINC001272744746   -0.1700
      3 C3         -6.6618    4.0264   54.8930 C.3     1  ZINC001272744746    0.1500
      4 N4         -6.7976    3.7087   53.4693 N.am    1  ZINC001272744746   -0.6100
      5 C5         -5.9564    2.7414   52.7519 C.3     1  ZINC001272744746    0.0700
      6 C6         -6.7113    2.4340   51.4473 C.3     1  ZINC001272744746    0.1100
      7 C7         -7.5687    3.6982   51.2540 C.3     1  ZINC001272744746   -0.1500
      8 C8         -7.7122    4.2611   52.6523 C.2     1  ZINC001272744746    0.5200
      9 O9         -8.5280    5.0944   52.9855 O.2     1  ZINC001272744746   -0.5200
     10 C10        -7.5977    1.2081   51.6177 C.3     1  ZINC001272744746   -0.1000
     11 C11        -6.7183   -0.0291   51.8291 C.3     1  ZINC001272744746   -0.1200
     12 C12        -5.7498   -0.1616   50.6504 C.3     1  ZINC001272744746   -0.1200
     13 C13        -4.9009    1.1072   50.5447 C.3     1  ZINC001272744746    0.0500
     14 N14        -5.7785    2.2679   50.3368 N.3     1  ZINC001272744746   -0.5100
     15 C15        -4.9926    3.4903   50.1221 C.3     1  ZINC001272744746    0.0800
     16 C16        -3.5567    3.1230   49.8499 C.ar    1  ZINC001272744746   -0.0200
     17 C17        -3.1835    2.6849   48.5931 C.ar    1  ZINC001272744746   -0.1700
     18 C18        -1.8654    2.3462   48.3385 C.ar    1  ZINC001272744746    0.1200
     19 F19        -1.5028    1.9182   47.1094 F       1  ZINC001272744746   -0.1200
     20 C20        -0.9171    2.4471   49.3458 C.ar    1  ZINC001272744746    0.0400
     21 O21         0.3788    2.1155   49.0981 O.3     1  ZINC001272744746   -0.4700
     22 C22        -1.2943    2.8887   50.6098 C.ar    1  ZINC001272744746    0.1300
     23 O23        -0.3683    2.9896   51.6005 O.3     1  ZINC001272744746   -0.3000
     24 C24        -0.8277    3.4478   52.8738 C.3     1  ZINC001272744746    0.0200
     25 C25        -2.6146    3.2304   50.8562 C.ar    1  ZINC001272744746   -0.1800
     26 H26        -5.9546    3.6481   57.3974 H       1  ZINC001272744746    0.1000
     27 H27        -6.4099    1.8385   57.5288 H       1  ZINC001272744746    0.1000
     28 H28        -7.1368    1.8561   55.2520 H       1  ZINC001272744746    0.1100
     29 H29        -7.4631    4.7018   55.1927 H       1  ZINC001272744746    0.0900
     30 H30        -5.6984    4.5054   55.0681 H       1  ZINC001272744746    0.0800
     31 H31        -4.9827    3.1785   52.5308 H       1  ZINC001272744746    0.0700
     32 H32        -5.8378    1.8329   53.3425 H       1  ZINC001272744746    0.0900
     33 H33        -7.0599    4.4087   50.6024 H       1  ZINC001272744746    0.1100
     34 H34        -8.5462    3.4383   50.8477 H       1  ZINC001272744746    0.1100
     35 H35        -8.2461    1.3456   52.4830 H       1  ZINC001272744746    0.0700
     36 H36        -8.2069    1.0728   50.7241 H       1  ZINC001272744746    0.0800
     37 H37        -6.1531    0.0793   52.7549 H       1  ZINC001272744746    0.0600
     38 H38        -7.3469   -0.9178   51.8862 H       1  ZINC001272744746    0.0700
     39 H39        -5.0995   -1.0218   50.8091 H       1  ZINC001272744746    0.0700
     40 H40        -6.3155   -0.2983   49.7288 H       1  ZINC001272744746    0.0700
     41 H41        -4.3324    1.2418   51.4649 H       1  ZINC001272744746    0.0400
     42 H42        -4.2140    1.0158   49.7034 H       1  ZINC001272744746    0.0900
     43 H43        -5.3959    4.0364   49.2692 H       1  ZINC001272744746    0.1000
     44 H44        -5.0448    4.1170   51.0124 H       1  ZINC001272744746    0.0600
     45 H45        -3.9215    2.6062   47.8086 H       1  ZINC001272744746    0.1400
     46 H46         0.9542    2.1710   49.8733 H       1  ZINC001272744746    0.3900
     47 H47        -1.5885    2.7652   53.2526 H       1  ZINC001272744746    0.0600
     48 H48         0.0092    3.4820   53.5713 H       1  ZINC001272744746    0.1100
     49 H49        -1.2542    4.4452   52.7688 H       1  ZINC001272744746    0.0600
     50 H50        -2.9093    3.5735   51.8369 H       1  ZINC001272744746    0.1400
@<TRIPOS>BOND
     1     1     2    2
     2     1    26    1
     3     1    27    1
     4     2     3    1
     5     2    28    1
     6     3     4    1
     7     3    29    1
     8     3    30    1
     9     4     8   am
    10     4     5    1
    11     5     6    1
    12     5    31    1
    13     5    32    1
    14     6    14    1
    15     6     7    1
    16     6    10    1
    17     7     8    1
    18     7    33    1
    19     7    34    1
    20     8     9    2
    21    10    11    1
    22    10    35    1
    23    10    36    1
    24    11    12    1
    25    11    37    1
    26    11    38    1
    27    12    13    1
    28    12    39    1
    29    12    40    1
    30    13    14    1
    31    13    41    1
    32    13    42    1
    33    14    15    1
    34    15    16    1
    35    15    43    1
    36    15    44    1
    37    16    25   ar
    38    16    17   ar
    39    17    18   ar
    40    17    45    1
    41    18    19    1
    42    18    20   ar
    43    20    21    1
    44    20    22   ar
    45    21    46    1
    46    22    23    1
    47    22    25   ar
    48    23    24    1
    49    24    47    1
    50    24    48    1
    51    24    49    1
    52    25    50    1
@<TRIPOS>SUBSTRUCTURE
     1 ZINC001272744746        1 TEMP              0 ****  ****    0 ROOT


##########                                Name:    ZINC000863216249
##########                DOCK_Rotatable_Bonds:                   5
##########                         Heavy_Atoms:                  23
##########                    Molecular_Weight:             396.351
##########                DOCK_Rotatable_Bonds:                   5
##########                       Formal_Charge:         -0.00999944
##########                     HBond_Acceptors:                   5
##########                        HBond_Donors:                   1
##########                         Heavy_Atoms:                  23
##########                          Grid_Score:          -30.346975
##########                     Grid_vdw_energy:          -29.829290
##########                      Grid_es_energy:           -0.517685
##########           Internal_energy_repulsive:           25.307943

@<TRIPOS>MOLECULE
ZINC000863216249
 45 48 1 0 0
SMALL
USER_CHARGES


@<TRIPOS>ATOM
      1 S1         -2.9678    1.9162   48.4430 S.2     1  ZINC000863216249   -0.5900
      2 C2         -3.0615    2.5125   50.0450 C.2     1  ZINC000863216249    0.5600
      3 N3         -4.2565    2.6036   50.6614 N.am    1  ZINC000863216249   -0.6800
      4 C4         -5.4761    2.1981   49.9583 C.3     1  ZINC000863216249    0.1200
      5 C5         -5.8649    0.7818   50.3869 C.3     1  ZINC000863216249    0.0400
      6 N6         -7.0126    0.8446   51.3016 N.3     1  ZINC000863216249   -0.5300
      7 C7         -6.6374    1.4757   52.5753 C.3     1  ZINC000863216249    0.0000
      8 C8         -7.8733    1.5746   53.4733 C.3     1  ZINC000863216249    0.0600
      9 O9         -8.4277    0.2693   53.6584 O.3     1  ZINC000863216249   -0.3800
     10 C10        -8.8049   -0.3743   52.4382 C.3     1  ZINC000863216249    0.0600
     11 C11        -7.5784   -0.4929   51.5297 C.3     1  ZINC000863216249    0.0200
     12 N12        -1.9394    2.8855   50.6918 N.am    1  ZINC000863216249   -0.5100
     13 C13        -0.5860    2.8324   50.1277 C.3     1  ZINC000863216249    0.1200
     14 C14         0.3260    3.3568   51.2413 C.3     1  ZINC000863216249   -0.1100
     15 C15         1.7190    2.7828   51.4686 C.3     1  ZINC000863216249   -0.1500
     16 C16         1.5520    4.2080   50.9343 C.3     1  ZINC000863216249   -0.1500
     17 C17        -0.5959    3.6790   52.3889 C.ar    1  ZINC000863216249   -0.0700
     18 C18        -0.3427    4.1813   53.6507 C.ar    1  ZINC000863216249   -0.0800
     19 C19        -1.3822    4.3916   54.5374 C.ar    1  ZINC000863216249   -0.1000
     20 C20        -2.6799    4.0978   54.1586 C.ar    1  ZINC000863216249   -0.0700
     21 Br21       -4.1036    4.3852   55.3695 Br      1  ZINC000863216249   -0.0400
     22 C22        -2.9382    3.5960   52.8997 C.ar    1  ZINC000863216249   -0.0900
     23 C23        -1.8948    3.3859   51.9972 C.ar    1  ZINC000863216249    0.1400
     24 H24        -4.3091    2.9379   51.5705 H       1  ZINC000863216249    0.4000
     25 H25        -6.2840    2.8870   50.2051 H       1  ZINC000863216249    0.0900
     26 H26        -5.2988    2.2166   48.8830 H       1  ZINC000863216249    0.1000
     27 H27        -6.1330    0.1968   49.5071 H       1  ZINC000863216249    0.0900
     28 H28        -5.0221    0.3112   50.8931 H       1  ZINC000863216249    0.0400
     29 H29        -5.8756    0.8727   53.0696 H       1  ZINC000863216249    0.0500
     30 H30        -6.2449    2.4745   52.3849 H       1  ZINC000863216249    0.1000
     31 H31        -7.5884    1.9895   54.4401 H       1  ZINC000863216249    0.1000
     32 H32        -8.6141    2.2213   53.0030 H       1  ZINC000863216249    0.0600
     33 H33        -9.1939   -1.3688   52.6564 H       1  ZINC000863216249    0.1000
     34 H34        -9.5727    0.2158   51.9378 H       1  ZINC000863216249    0.0600
     35 H35        -7.8728   -0.9311   50.5761 H       1  ZINC000863216249    0.0900
     36 H36        -6.8317   -1.1274   52.0073 H       1  ZINC000863216249    0.0500
     37 H37        -0.3214    1.8062   49.8728 H       1  ZINC000863216249    0.0900
     38 H38        -0.5165    3.4724   49.2481 H       1  ZINC000863216249    0.0900
     39 H39         2.0541    2.6675   52.4994 H       1  ZINC000863216249    0.1100
     40 H40         2.0700    2.0216   50.7717 H       1  ZINC000863216249    0.1100
     41 H41         1.7929    4.3843   49.8860 H       1  ZINC000863216249    0.1100
     42 H42         1.7772    5.0301   51.6136 H       1  ZINC000863216249    0.1100
     43 H43         0.6707    4.4099   53.9455 H       1  ZINC000863216249    0.1400
     44 H44        -1.1817    4.7840   55.5234 H       1  ZINC000863216249    0.1400
     45 H45        -3.9534    3.3682   52.6099 H       1  ZINC000863216249    0.1900
@<TRIPOS>BOND
     1     1     2    2
     2     2     3   am
     3     2    12   am
     4     3     4    1
     5     3    24    1
     6     4     5    1
     7     4    25    1
     8     4    26    1
     9     5     6    1
    10     5    27    1
    11     5    28    1
    12     6    11    1
    13     6     7    1
    14     7     8    1
    15     7    29    1
    16     7    30    1
    17     8     9    1
    18     8    31    1
    19     8    32    1
    20     9    10    1
    21    10    11    1
    22    10    33    1
    23    10    34    1
    24    11    35    1
    25    11    36    1
    26    12    23    1
    27    12    13    1
    28    13    14    1
    29    13    37    1
    30    13    38    1
    31    14    16    1
    32    14    15    1
    33    14    17    1
    34    15    16    1
    35    15    39    1
    36    15    40    1
    37    16    41    1
    38    16    42    1
    39    17    23   ar
    40    17    18   ar
    41    18    19   ar
    42    18    43    1
    43    19    20   ar
    44    19    44    1
    45    20    21    1
    46    20    22   ar
    47    22    23   ar
    48    22    45    1
@<TRIPOS>SUBSTRUCTURE
     1 ZINC000863216249        1 TEMP              0 ****  ****    0 ROOT


##########                                Name:    ZINC000541568816
##########                DOCK_Rotatable_Bonds:                   8
##########                         Heavy_Atoms:                  25
##########                    Molecular_Weight:             411.339
##########                DOCK_Rotatable_Bonds:                   8
##########                       Formal_Charge:          -0.0100007
##########                     HBond_Acceptors:                   5
##########                        HBond_Donors:                   1
##########                         Heavy_Atoms:                  25
##########                          Grid_Score:          -30.333870
##########                     Grid_vdw_energy:          -28.013023
##########                      Grid_es_energy:           -2.320847
##########           Internal_energy_repulsive:           24.906658

@<TRIPOS>MOLECULE
ZINC000541568816
 52 54 1 0 0
SMALL
USER_CHARGES


@<TRIPOS>ATOM
      1 C1         -1.9069    2.7587   49.2979 C.3     1  ZINC000541568816   -0.1500
      2 C2         -3.2570    3.4757   49.3627 C.3     1  ZINC000541568816    0.0600
      3 O3         -4.1869    2.6747   50.0946 O.3     1  ZINC000541568816   -0.3700
      4 C4         -5.5469    3.0913   49.9571 C.3     1  ZINC000541568816    0.0700
      5 H5         -5.8796    3.1157   48.9194 H       1  ZINC000541568816    0.0900
      6 C6         -5.8830    4.3709   50.7431 C.3     1  ZINC000541568816   -0.1700
      7 C7         -7.2185    3.7019   51.1131 C.3     1  ZINC000541568816    0.1500
      8 H8         -7.5224    3.8741   52.1456 H       1  ZINC000541568816    0.1100
      9 N9         -8.2928    3.9638   50.1521 N.am    1  ZINC000541568816   -0.7200
     10 C10        -9.5795    3.9183   50.5508 C.2     1  ZINC000541568816    0.7100
     11 O11        -9.8485    3.6614   51.7084 O.2     1  ZINC000541568816   -0.5800
     12 N12       -10.5679    4.1576   49.6664 N.am    1  ZINC000541568816   -0.6300
     13 C13       -10.2437    4.4689   48.2720 C.3     1  ZINC000541568816    0.1000
     14 C14       -10.0188    5.9752   48.1247 C.3     1  ZINC000541568816   -0.1800
     15 C15       -11.9665    4.1064   50.0994 C.3     1  ZINC000541568816    0.1700
     16 C16       -12.5788    2.7993   49.6665 C.ar    1  ZINC000541568816   -0.0700
     17 C17       -12.9254    2.6031   48.3432 C.ar    1  ZINC000541568816   -0.1000
     18 C18       -13.4872    1.4039   47.9459 C.ar    1  ZINC000541568816   -0.1000
     19 C19       -13.7020    0.4005   48.8720 C.ar    1  ZINC000541568816   -0.1200
     20 C20       -13.3557    0.5958   50.1959 C.ar    1  ZINC000541568816   -0.0900
     21 C21       -12.7889    1.7934   50.5928 C.ar    1  ZINC000541568816   -0.0900
     22 Br22      -12.3149    2.0612   52.4037 Br      1  ZINC000541568816   -0.0500
     23 C23        -6.5117    2.3582   50.8945 C.3     1  ZINC000541568816    0.0800
     24 C24        -5.8551    1.7675   52.1543 C.3     1  ZINC000541568816   -0.1200
     25 C25        -6.7775    0.5552   52.4630 C.3     1  ZINC000541568816   -0.1600
     26 C26        -7.1812    0.1183   51.0317 C.3     1  ZINC000541568816    0.0500
     27 O27        -7.3057    1.3418   50.2858 O.3     1  ZINC000541568816   -0.3600
     28 H28        -1.5316    2.5986   50.3087 H       1  ZINC000541568816    0.0600
     29 H29        -2.0296    1.7973   48.7993 H       1  ZINC000541568816    0.0600
     30 H30        -1.1975    3.3697   48.7396 H       1  ZINC000541568816    0.0700
     31 H31        -3.1342    4.4372   49.8613 H       1  ZINC000541568816    0.0500
     32 H32        -3.6322    3.6359   48.3519 H       1  ZINC000541568816    0.0500
     33 H33        -5.2290    4.5422   51.5982 H       1  ZINC000541568816    0.1000
     34 H34        -5.9966    5.2530   50.1129 H       1  ZINC000541568816    0.0800
     35 H35        -8.0781    4.1699   49.2289 H       1  ZINC000541568816    0.4000
     36 H36        -9.3381    3.9363   47.9820 H       1  ZINC000541568816    0.0900
     37 H37       -11.0684    4.1602   47.6296 H       1  ZINC000541568816    0.0700
     38 H38        -9.1941    6.2840   48.7672 H       1  ZINC000541568816    0.0600
     39 H39        -9.7776    6.2068   47.0873 H       1  ZINC000541568816    0.0700
     40 H40       -10.9244    6.5078   48.4149 H       1  ZINC000541568816    0.0600
     41 H41       -12.0138    4.1879   51.1853 H       1  ZINC000541568816    0.1000
     42 H42       -12.5168    4.9324   49.6487 H       1  ZINC000541568816    0.1100
     43 H43       -12.7577    3.3869   47.6192 H       1  ZINC000541568816    0.1300
     44 H44       -13.7586    1.2511   46.9117 H       1  ZINC000541568816    0.1300
     45 H45       -14.1409   -0.5361   48.5612 H       1  ZINC000541568816    0.1300
     46 H46       -13.5239   -0.1881   50.9196 H       1  ZINC000541568816    0.1300
     47 H47        -4.8373    1.4386   51.9448 H       1  ZINC000541568816    0.1000
     48 H48        -5.8695    2.4860   52.9738 H       1  ZINC000541568816    0.0900
     49 H49        -6.2288   -0.2354   52.9748 H       1  ZINC000541568816    0.0900
     50 H50        -7.6495    0.8623   53.0403 H       1  ZINC000541568816    0.0800
     51 H51        -6.4065   -0.5129   50.5963 H       1  ZINC000541568816    0.0600
     52 H52        -8.1340   -0.4108   51.0523 H       1  ZINC000541568816    0.0900
@<TRIPOS>BOND
     1     1     2    1
     2     1    28    1
     3     1    29    1
     4     1    30    1
     5     2     3    1
     6     2    31    1
     7     2    32    1
     8     3     4    1
     9     4     5    1
    10     4    23    1
    11     4     6    1
    12     6     7    1
    13     6    33    1
    14     6    34    1
    15     7     8    1
    16     7     9    1
    17     7    23    1
    18     9    10   am
    19     9    35    1
    20    10    11    2
    21    10    12   am
    22    12    13    1
    23    12    15    1
    24    13    14    1
    25    13    36    1
    26    13    37    1
    27    14    38    1
    28    14    39    1
    29    14    40    1
    30    15    16    1
    31    15    41    1
    32    15    42    1
    33    16    21   ar
    34    16    17   ar
    35    17    18   ar
    36    17    43    1
    37    18    19   ar
    38    18    44    1
    39    19    20   ar
    40    19    45    1
    41    20    21   ar
    42    20    46    1
    43    21    22    1
    44    23    27    1
    45    23    24    1
    46    24    25    1
    47    24    47    1
    48    24    48    1
    49    25    26    1
    50    25    49    1
    51    25    50    1
    52    26    27    1
    53    26    51    1
    54    26    52    1
@<TRIPOS>SUBSTRUCTURE
     1 ZINC000541568816        1 TEMP              0 ****  ****    0 ROOT


##########                                Name:    ZINC001009984555
##########                DOCK_Rotatable_Bonds:                   7
##########                         Heavy_Atoms:                  23
##########                    Molecular_Weight:             338.446
##########                DOCK_Rotatable_Bonds:                   7
##########                       Formal_Charge:           0.0400002
##########                     HBond_Acceptors:                   6
##########                        HBond_Donors:                   1
##########                         Heavy_Atoms:                  23
##########                          Grid_Score:          -30.325558
##########                     Grid_vdw_energy:          -28.666674
##########                      Grid_es_energy:           -1.658884
##########           Internal_energy_repulsive:           15.244697

@<TRIPOS>MOLECULE
ZINC001009984555
 46 47 1 0 0
SMALL
USER_CHARGES


@<TRIPOS>ATOM
      1 C1         -8.1605    3.3348   57.0299 C.3     1  ZINC001009984555   -0.1400
      2 S2         -6.4747    2.7124   56.7822 S.3     1  ZINC001009984555   -0.1800
      3 C3         -6.1727    3.0410   55.0240 C.3     1  ZINC001009984555   -0.1300
      4 C4         -6.9764    2.0788   54.1878 C.2     1  ZINC001009984555    0.5500
      5 O5         -7.7464    1.3086   54.7214 O.2     1  ZINC001009984555   -0.5100
      6 N6         -6.8394    2.0741   52.8470 N.am    1  ZINC001009984555   -0.6100
      7 C7         -5.9382    2.9464   52.0724 C.3     1  ZINC001009984555    0.1000
      8 C8         -5.6784    2.1768   50.7533 C.3     1  ZINC001009984555   -0.1100
      9 H9         -4.9104    1.4155   50.8898 H       1  ZINC001009984555    0.1000
     10 C10        -5.3001    3.1369   49.6236 C.3     1  ZINC001009984555    0.1300
     11 N11        -3.8411    3.2390   49.5377 N.am    1  ZINC001009984555   -0.7300
     12 C12        -3.1260    2.2330   48.9963 C.2     1  ZINC001009984555    0.5600
     13 O13        -3.6916    1.2417   48.5782 O.2     1  ZINC001009984555   -0.5200
     14 C14        -1.6534    2.3352   48.9110 C.ar    1  ZINC001009984555   -0.1200
     15 C15        -1.0072    2.1390   47.6898 C.ar    1  ZINC001009984555   -0.0900
     16 C16         0.3673    2.2355   47.6156 C.ar    1  ZINC001009984555   -0.1000
     17 C17         1.1059    2.5256   48.7482 C.ar    1  ZINC001009984555   -0.1200
     18 C18         0.4714    2.7218   49.9647 C.ar    1  ZINC001009984555    0.0900
     19 F19         1.1992    3.0049   51.0672 F       1  ZINC001009984555   -0.1300
     20 C20        -0.9048    2.6339   50.0503 C.ar    1  ZINC001009984555   -0.0500
     21 C21        -1.5945    2.8473   51.3731 C.3     1  ZINC001009984555   -0.1200
     22 C22        -7.0640    1.5287   50.4927 C.3     1  ZINC001009984555   -0.1200
     23 C23        -7.5594    1.1937   51.9152 C.3     1  ZINC001009984555    0.1400
     24 H24        -8.6306    1.3815   51.9885 H       1  ZINC001009984555    0.0800
     25 C25        -7.2653   -0.2729   52.2367 C.3     1  ZINC001009984555   -0.1700
     26 H26        -8.8468    2.7937   56.3787 H       1  ZINC001009984555    0.0800
     27 H27        -8.4532    3.1870   58.0694 H       1  ZINC001009984555    0.1100
     28 H28        -8.1942    4.3976   56.7906 H       1  ZINC001009984555    0.0800
     29 H29        -6.4704    4.0629   54.7889 H       1  ZINC001009984555    0.1100
     30 H30        -5.1122    2.9125   54.8072 H       1  ZINC001009984555    0.1100
     31 H31        -6.4203    3.9019   51.8655 H       1  ZINC001009984555    0.0800
     32 H32        -5.0036    3.1010   52.6117 H       1  ZINC001009984555    0.0800
     33 H33        -5.6942    2.7605   48.6795 H       1  ZINC001009984555    0.0800
     34 H34        -5.7218    4.1212   49.8268 H       1  ZINC001009984555    0.0800
     35 H35        -3.3899    4.0306   49.8702 H       1  ZINC001009984555    0.4000
     36 H36        -1.5819    1.9116   46.8041 H       1  ZINC001009984555    0.1300
     37 H37         0.8676    2.0836   46.6706 H       1  ZINC001009984555    0.1400
     38 H38         2.1816    2.5992   48.6846 H       1  ZINC001009984555    0.1400
     39 H39        -1.9462    3.8770   51.4375 H       1  ZINC001009984555    0.0800
     40 H40        -2.4430    2.1679   51.4543 H       1  ZINC001009984555    0.1000
     41 H41        -0.8933    2.6515   52.1843 H       1  ZINC001009984555    0.0600
     42 H42        -7.7343    2.2354   50.0034 H       1  ZINC001009984555    0.0900
     43 H43        -6.9594    0.6204   49.8993 H       1  ZINC001009984555    0.0900
     44 H44        -6.1911   -0.4492   52.1791 H       1  ZINC001009984555    0.0600
     45 H45        -7.6178   -0.5022   53.2422 H       1  ZINC001009984555    0.0700
     46 H46        -7.7774   -0.9122   51.5176 H       1  ZINC001009984555    0.0700
@<TRIPOS>BOND
     1     1     2    1
     2     1    26    1
     3     1    27    1
     4     1    28    1
     5     2     3    1
     6     3     4    1
     7     3    29    1
     8     3    30    1
     9     4     5    2
    10     4     6   am
    11     6    23    1
    12     6     7    1
    13     7     8    1
    14     7    31    1
    15     7    32    1
    16     8     9    1
    17     8    10    1
    18     8    22    1
    19    10    11    1
    20    10    33    1
    21    10    34    1
    22    11    12   am
    23    11    35    1
    24    12    13    2
    25    12    14    1
    26    14    20   ar
    27    14    15   ar
    28    15    16   ar
    29    15    36    1
    30    16    17   ar
    31    16    37    1
    32    17    18   ar
    33    17    38    1
    34    18    19    1
    35    18    20   ar
    36    20    21    1
    37    21    39    1
    38    21    40    1
    39    21    41    1
    40    22    23    1
    41    22    42    1
    42    22    43    1
    43    23    24    1
    44    23    25    1
    45    25    44    1
    46    25    45    1
    47    25    46    1
@<TRIPOS>SUBSTRUCTURE
     1 ZINC001009984555        1 TEMP              0 ****  ****    0 ROOT


##########                                Name:    ZINC000151850193
##########                DOCK_Rotatable_Bonds:                  11
##########                         Heavy_Atoms:                  23
##########                    Molecular_Weight:             328.452
##########                DOCK_Rotatable_Bonds:                  11
##########                       Formal_Charge:            0.039999
##########                     HBond_Acceptors:                   6
##########                        HBond_Donors:                   2
##########                         Heavy_Atoms:                  23
##########                          Grid_Score:          -30.290915
##########                     Grid_vdw_energy:          -28.973833
##########                      Grid_es_energy:           -1.317081
##########           Internal_energy_repulsive:           52.703960

@<TRIPOS>MOLECULE
ZINC000151850193
 55 55 1 0 0
SMALL
USER_CHARGES


@<TRIPOS>ATOM
      1 C1         -4.3763    1.3357   50.0719 C.3     1  ZINC000151850193   -0.1500
      2 C2         -5.7148    2.0446   49.8549 C.3     1  ZINC000151850193   -0.1000
      3 C3         -6.4185    2.2286   51.2010 C.3     1  ZINC000151850193   -0.0800
      4 C4         -6.5090    0.9309   52.0064 C.3     1  ZINC000151850193   -0.1000
      5 C5         -7.2728   -0.1193   51.1972 C.3     1  ZINC000151850193   -0.1500
      6 C6         -5.8925    3.4241   52.0127 C.3     1  ZINC000151850193    0.1400
      7 H7         -4.8652    3.6973   51.7718 H       1  ZINC000151850193    0.1000
      8 N8         -6.1262    3.3033   53.4538 N.am    1  ZINC000151850193   -0.7000
      9 C9         -5.2859    3.8965   54.3249 C.2     1  ZINC000151850193    0.5200
     10 O10        -4.3355    4.5289   53.9155 O.2     1  ZINC000151850193   -0.5300
     11 C11        -5.5273    3.7736   55.8073 C.3     1  ZINC000151850193   -0.1500
     12 C12        -6.2852    2.4760   56.0948 C.3     1  ZINC000151850193    0.1500
     13 N13        -6.3496    2.2586   57.5422 N.am    1  ZINC000151850193   -0.7100
     14 C14        -7.3631    1.5452   58.0719 C.2     1  ZINC000151850193    0.6500
     15 O15        -8.2240    1.0837   57.3493 O.2     1  ZINC000151850193   -0.5600
     16 O16        -7.4214    1.3440   59.4019 O.3     1  ZINC000151850193   -0.3700
     17 C17        -8.4974    0.5028   59.8947 C.3     1  ZINC000151850193    0.1400
     18 C18        -8.4034   -0.8789   59.2444 C.3     1  ZINC000151850193   -0.1800
     19 C19        -8.3789    0.3606   61.4135 C.3     1  ZINC000151850193   -0.1400
     20 C20        -9.8439    1.1402   59.5457 C.3     1  ZINC000151850193   -0.1800
     21 C21        -6.9438    4.2794   51.2858 C.3     1  ZINC000151850193   -0.1700
     22 C22        -7.7535    2.9853   51.0999 C.3     1  ZINC000151850193    0.0700
     23 H23        -8.2284    2.9041   50.1221 H       1  ZINC000151850193    0.0800
     24 O24        -8.6515    2.7120   52.1773 O.3     1  ZINC000151850193   -0.3700
     25 C25        -9.9626    3.2490   51.9917 C.3     1  ZINC000151850193    0.0300
     26 H26        -3.7372    1.9520   50.7041 H       1  ZINC000151850193    0.0600
     27 H27        -4.5486    0.3746   50.5564 H       1  ZINC000151850193    0.0600
     28 H28        -3.8899    1.1756   49.1097 H       1  ZINC000151850193    0.0600
     29 H29        -5.5401    3.0196   49.3999 H       1  ZINC000151850193    0.0700
     30 H30        -6.3418    1.4435   49.1964 H       1  ZINC000151850193    0.0700
     31 H31        -5.5047    0.5651   52.2202 H       1  ZINC000151850193    0.0700
     32 H32        -7.0337    1.1204   52.9428 H       1  ZINC000151850193    0.0700
     33 H33        -8.2994    0.2145   51.0459 H       1  ZINC000151850193    0.0500
     34 H34        -6.7888   -0.2555   50.2301 H       1  ZINC000151850193    0.0500
     35 H35        -7.2745   -1.0650   51.7392 H       1  ZINC000151850193    0.0500
     36 H36        -6.8857    2.7965   53.7812 H       1  ZINC000151850193    0.4100
     37 H37        -4.5714    3.7597   56.3311 H       1  ZINC000151850193    0.1000
     38 H38        -6.1175    4.6230   56.1511 H       1  ZINC000151850193    0.1000
     39 H39        -7.2958    2.5488   55.6930 H       1  ZINC000151850193    0.0800
     40 H40        -5.7666    1.6405   55.6247 H       1  ZINC000151850193    0.0800
     41 H41        -5.6631    2.6281   58.1192 H       1  ZINC000151850193    0.4100
     42 H42        -7.4441   -1.3329   59.4930 H       1  ZINC000151850193    0.0600
     43 H43        -9.2111   -1.5103   59.6143 H       1  ZINC000151850193    0.0700
     44 H44        -8.4878   -0.7776   58.1623 H       1  ZINC000151850193    0.0900
     45 H45        -8.4459    1.3450   61.8769 H       1  ZINC000151850193    0.0700
     46 H46        -9.1866   -0.2708   61.7835 H       1  ZINC000151850193    0.0800
     47 H47        -7.4197   -0.0933   61.6622 H       1  ZINC000151850193    0.0700
     48 H48        -9.9283    1.2415   58.4637 H       1  ZINC000151850193    0.0900
     49 H49       -10.6516    0.5087   59.9156 H       1  ZINC000151850193    0.0700
     50 H50        -9.9109    2.1246   60.0091 H       1  ZINC000151850193    0.0600
     51 H51        -7.4321    5.0112   51.9294 H       1  ZINC000151850193    0.0800
     52 H52        -6.5861    4.7089   50.3501 H       1  ZINC000151850193    0.1000
     53 H53        -9.9006    4.3326   51.8917 H       1  ZINC000151850193    0.0400
     54 H54       -10.4044    2.8256   51.0896 H       1  ZINC000151850193    0.0400
     55 H55       -10.5831    2.9984   52.8522 H       1  ZINC000151850193    0.0900
@<TRIPOS>BOND
     1     1     2    1
     2     1    26    1
     3     1    27    1
     4     1    28    1
     5     2     3    1
     6     2    29    1
     7     2    30    1
     8     3    22    1
     9     3     4    1
    10     3     6    1
    11     4     5    1
    12     4    31    1
    13     4    32    1
    14     5    33    1
    15     5    34    1
    16     5    35    1
    17     6     7    1
    18     6     8    1
    19     6    21    1
    20     8     9   am
    21     8    36    1
    22     9    10    2
    23     9    11    1
    24    11    12    1
    25    11    37    1
    26    11    38    1
    27    12    13    1
    28    12    39    1
    29    12    40    1
    30    13    14   am
    31    13    41    1
    32    14    15    2
    33    14    16    1
    34    16    17    1
    35    17    18    1
    36    17    19    1
    37    17    20    1
    38    18    42    1
    39    18    43    1
    40    18    44    1
    41    19    45    1
    42    19    46    1
    43    19    47    1
    44    20    48    1
    45    20    49    1
    46    20    50    1
    47    21    22    1
    48    21    51    1
    49    21    52    1
    50    22    23    1
    51    22    24    1
    52    24    25    1
    53    25    53    1
    54    25    54    1
    55    25    55    1
@<TRIPOS>SUBSTRUCTURE
     1 ZINC000151850193        1 TEMP              0 ****  ****    0 ROOT


##########                                Name:    ZINC000655235556
##########                DOCK_Rotatable_Bonds:                   6
##########                         Heavy_Atoms:                  23
##########                    Molecular_Weight:             336.778
##########                DOCK_Rotatable_Bonds:                   6
##########                       Formal_Charge:         -0.00999996
##########                     HBond_Acceptors:                   8
##########                        HBond_Donors:                   2
##########                         Heavy_Atoms:                  23
##########                          Grid_Score:          -30.280457
##########                     Grid_vdw_energy:          -29.022326
##########                      Grid_es_energy:           -1.258131
##########           Internal_energy_repulsive:            5.140977

@<TRIPOS>MOLECULE
ZINC000655235556
 40 42 1 0 0
SMALL
USER_CHARGES


@<TRIPOS>ATOM
      1 C1         -8.0419    4.0449   49.7120 C.3     1  ZINC000655235556    0.0200
      2 O2         -7.2521    3.5222   50.7821 O.3     1  ZINC000655235556   -0.2700
      3 C3         -6.3595    2.5494   50.4705 C.ar    1  ZINC000655235556    0.2000
      4 C4         -5.3260    2.8107   49.5847 C.ar    1  ZINC000655235556   -0.2100
      5 C5         -4.4169    1.8183   49.2686 C.ar    1  ZINC000655235556    0.0300
      6 Cl6        -3.1250    2.1529   48.1583 Cl      1  ZINC000655235556   -0.0500
      7 C7         -4.5310    0.5573   49.8339 C.ar    1  ZINC000655235556   -0.1600
      8 C8         -5.5526    0.2814   50.7162 C.ar    1  ZINC000655235556   -0.0300
      9 C9         -6.4750    1.2768   51.0478 C.ar    1  ZINC000655235556   -0.1700
     10 C10        -7.5704    0.9876   51.9919 C.2     1  ZINC000655235556    0.5700
     11 O11        -8.5180    0.3137   51.6359 O.2     1  ZINC000655235556   -0.5100
     12 N12        -7.5214    1.4703   53.2493 N.am    1  ZINC000655235556   -0.7300
     13 C13        -8.6088    1.1816   54.1878 C.3     1  ZINC000655235556    0.2100
     14 C14        -8.0774    1.2136   55.5975 C.2     1  ZINC000655235556    0.2600
     15 N15        -8.6622    0.7034   56.6508 N.2     1  ZINC000655235556   -0.5100
     16 C16        -7.9117    0.9146   57.7313 C.2     1  ZINC000655235556    0.2200
     17 C17        -8.2500    0.4742   59.1323 C.3     1  ZINC000655235556    0.1700
     18 H18        -7.3487    0.4666   59.7451 H       1  ZINC000655235556    0.1100
     19 C19        -8.8741   -0.9375   59.1011 C.3     1  ZINC000655235556   -0.1400
     20 C20        -9.9882   -0.8292   60.1777 C.3     1  ZINC000655235556   -0.1500
     21 C21       -10.4269    0.6462   59.9995 C.3     1  ZINC000655235556    0.0500
     22 O22        -9.2171    1.3645   59.7012 O.3     1  ZINC000655235556   -0.3700
     23 N23        -6.8342    1.5653   57.3789 N.2     1  ZINC000655235556   -0.2800
     24 N24        -6.9170    1.7664   55.9914 N.pl3   1  ZINC000655235556   -0.4700
     25 H25        -7.3876    4.4789   48.9559 H       1  ZINC000655235556    0.0600
     26 H26        -8.6283    3.2410   49.2668 H       1  ZINC000655235556    0.0600
     27 H27        -8.7123    4.8134   50.0969 H       1  ZINC000655235556    0.1100
     28 H28        -5.2311    3.7906   49.1406 H       1  ZINC000655235556    0.1500
     29 H29        -3.8163   -0.2118   49.5812 H       1  ZINC000655235556    0.1400
     30 H30        -5.6378   -0.7023   51.1539 H       1  ZINC000655235556    0.1400
     31 H31        -6.7661    2.0089   53.5330 H       1  ZINC000655235556    0.4000
     32 H32        -9.3923    1.9313   54.0777 H       1  ZINC000655235556    0.1000
     33 H33        -9.0186    0.1940   53.9762 H       1  ZINC000655235556    0.1100
     34 H34        -9.3010   -1.1514   58.1212 H       1  ZINC000655235556    0.0800
     35 H35        -8.1389   -1.6929   59.3783 H       1  ZINC000655235556    0.0900
     36 H36       -10.8100   -1.5122   59.9625 H       1  ZINC000655235556    0.0900
     37 H37        -9.5875   -1.0020   61.1764 H       1  ZINC000655235556    0.0800
     38 H38       -11.1331    0.7338   59.1738 H       1  ZINC000655235556    0.0600
     39 H39       -10.8721    1.0223   60.9206 H       1  ZINC000655235556    0.0900
     40 H40        -6.2689    2.2198   55.4300 H       1  ZINC000655235556    0.4400
@<TRIPOS>BOND
     1     1     2    1
     2     1    25    1
     3     1    26    1
     4     1    27    1
     5     2     3    1
     6     3     9   ar
     7     3     4   ar
     8     4     5   ar
     9     4    28    1
    10     5     6    1
    11     5     7   ar
    12     7     8   ar
    13     7    29    1
    14     8     9   ar
    15     8    30    1
    16     9    10    1
    17    10    11    2
    18    10    12   am
    19    12    13    1
    20    12    31    1
    21    13    14    1
    22    13    32    1
    23    13    33    1
    24    14    24    1
    25    14    15    2
    26    15    16    1
    27    16    17    1
    28    16    23    2
    29    17    18    1
    30    17    22    1
    31    17    19    1
    32    19    20    1
    33    19    34    1
    34    19    35    1
    35    20    21    1
    36    20    36    1
    37    20    37    1
    38    21    22    1
    39    21    38    1
    40    21    39    1
    41    23    24    1
    42    24    40    1
@<TRIPOS>SUBSTRUCTURE
     1 ZINC000655235556        1 TEMP              0 ****  ****    0 ROOT


##########                                Name:    ZINC000285228948
##########                DOCK_Rotatable_Bonds:                   8
##########                         Heavy_Atoms:                  23
##########                    Molecular_Weight:             339.822
##########                DOCK_Rotatable_Bonds:                   8
##########                       Formal_Charge:           0.0299997
##########                     HBond_Acceptors:                   7
##########                        HBond_Donors:                   3
##########                         Heavy_Atoms:                  23
##########                          Grid_Score:          -30.262953
##########                     Grid_vdw_energy:          -28.315292
##########                      Grid_es_energy:           -1.947661
##########           Internal_energy_repulsive:           24.867689

@<TRIPOS>MOLECULE
ZINC000285228948
 45 46 1 0 0
SMALL
USER_CHARGES


@<TRIPOS>ATOM
      1 C1         -9.5199   -1.2698   58.2912 C.3     1  <0>        -0.1600
      2 C2        -10.5056   -0.9235   59.4091 C.3     1  <0>         0.1800
      3 H3        -10.0660   -1.1790   60.3732 H       1  <0>         0.1100
      4 C4        -11.7797   -1.7045   59.2151 C.ar    1  <0>        -0.0900
      5 C5        -11.8860   -2.6053   58.1718 C.ar    1  <0>        -0.1000
      6 C6        -13.0542   -3.3219   57.9933 C.ar    1  <0>        -0.1100
      7 C7        -14.1175   -3.1376   58.8590 C.ar    1  <0>        -0.0300
      8 Cl8       -15.5851   -4.0377   58.6359 Cl      1  <0>        -0.0700
      9 C9        -14.0107   -2.2359   59.9030 C.ar    1  <0>        -0.1100
     10 C10       -12.8398   -1.5241   60.0838 C.ar    1  <0>        -0.0900
     11 N11       -10.8016    0.5108   59.3720 N.am    1  <0>        -0.6100
     12 C12       -11.9437    1.0033   58.5979 C.3     1  <0>         0.0600
     13 C13       -10.0231    1.3773   60.0501 C.2     1  <0>         0.5200
     14 O14       -10.2673    2.5649   60.0182 O.2     1  <0>        -0.5200
     15 C15        -8.8494    0.8705   60.8479 C.3     1  <0>         0.0300
     16 N16        -9.2545    0.6780   62.2467 N.3     1  <0>        -0.4900
     17 C17        -9.4202    1.9825   62.9372 C.3     1  <0>         0.0400
     18 C18        -9.3146    1.6060   64.4364 C.3     1  <0>        -0.1400
     19 C19        -8.2292    0.5052   64.4408 C.3     1  <0>         0.1100
     20 O20        -6.9563    1.0650   64.7700 O.3     1  <0>        -0.5400
     21 C21        -8.5905   -0.5818   65.4200 C.2     1  <0>         0.5000
     22 N22        -9.7776   -1.2120   65.3195 N.am    1  <0>        -0.8500
     23 O23        -7.8130   -0.8896   66.2985 O.2     1  <0>        -0.5200
     24 C24        -8.2137   -0.0500   63.0045 C.3     1  <0>         0.0600
     25 H25        -9.2997   -2.3370   58.3188 H       1  <0>         0.0700
     26 H26        -9.9595   -1.0143   57.3271 H       1  <0>         0.0600
     27 H27        -8.5984   -0.7049   58.4315 H       1  <0>         0.0700
     28 H28       -11.0559   -2.7488   57.4959 H       1  <0>         0.1400
     29 H29       -13.1372   -4.0254   57.1780 H       1  <0>         0.1300
     30 H30       -14.8405   -2.0914   60.5789 H       1  <0>         0.1400
     31 H31       -12.7562   -0.8204   60.8989 H       1  <0>         0.1300
     32 H32       -12.8394    0.9824   59.2186 H       1  <0>         0.0600
     33 H33       -11.7495    2.0260   58.2745 H       1  <0>         0.0800
     34 H34       -12.0917    0.3681   57.7246 H       1  <0>         0.0800
     35 H35        -8.5113   -0.0793   60.4334 H       1  <0>         0.1100
     36 H36        -8.0378    1.5967   60.8013 H       1  <0>         0.0700
     37 H37        -8.6229    2.6706   62.6563 H       1  <0>         0.0400
     38 H38       -10.3970    2.4132   62.7166 H       1  <0>         0.1200
     39 H39        -8.9960    2.4642   65.0282 H       1  <0>         0.0900
     40 H40       -10.2632    1.2139   64.8034 H       1  <0>         0.0900
     41 H41        -6.3893    0.4760   65.2864 H       1  <0>         0.3800
     42 H42       -10.0107   -1.9109   65.9505 H       1  <0>         0.4000
     43 H43       -10.3990   -0.9667   64.6162 H       1  <0>         0.4100
     44 H44        -8.4401   -1.1162   63.0161 H       1  <0>         0.1100
     45 H45        -7.2371    0.1200   62.5512 H       1  <0>         0.0700
@<TRIPOS>BOND
     1     1     2    1
     2     1    25    1
     3     1    26    1
     4     1    27    1
     5     2     3    1
     6     2     4    1
     7     2    11    1
     8     4    10   ar
     9     4     5   ar
    10     5     6   ar
    11     5    28    1
    12     6     7   ar
    13     6    29    1
    14     7     8    1
    15     7     9   ar
    16     9    10   ar
    17     9    30    1
    18    10    31    1
    19    11    12    1
    20    11    13   am
    21    12    32    1
    22    12    33    1
    23    12    34    1
    24    13    14    2
    25    13    15    1
    26    15    16    1
    27    15    35    1
    28    15    36    1
    29    16    24    1
    30    16    17    1
    31    17    18    1
    32    17    37    1
    33    17    38    1
    34    18    19    1
    35    18    39    1
    36    18    40    1
    37    19    20    1
    38    19    21    1
    39    19    24    1
    40    20    41    1
    41    21    22   am
    42    21    23    2
    43    22    42    1
    44    22    43    1
    45    24    44    1
    46    24    45    1
@<TRIPOS>SUBSTRUCTURE
     1 <0>         1 TEMP              0 ****  ****    0 ROOT


##########                                Name:    ZINC001300804061
##########                DOCK_Rotatable_Bonds:                   5
##########                         Heavy_Atoms:                  27
##########                    Molecular_Weight:              390.55
##########                DOCK_Rotatable_Bonds:                   5
##########                       Formal_Charge:                0.01
##########                     HBond_Acceptors:                   7
##########                        HBond_Donors:                   0
##########                         Heavy_Atoms:                  27
##########                          Grid_Score:          -30.246887
##########                     Grid_vdw_energy:          -29.104429
##########                      Grid_es_energy:           -1.142459
##########           Internal_energy_repulsive:           10.089653

@<TRIPOS>MOLECULE
ZINC001300804061
 57 60 1 0 0
SMALL
USER_CHARGES


@<TRIPOS>ATOM
      1 C1         -0.1519    2.5771   47.6051 C.3     1  ZINC001300804061    0.0300
      2 O2          0.1877    3.3210   48.7771 O.3     1  ZINC001300804061   -0.3800
      3 C3         -0.7243    3.1434   49.8628 C.3     1  ZINC001300804061    0.1000
      4 H4         -1.1936    2.1625   49.7871 H       1  ZINC001300804061    0.0700
      5 C5         -1.8004    4.2301   49.8090 C.3     1  ZINC001300804061    0.0500
      6 N6         -2.7258    4.0607   50.9366 N.3     1  ZINC001300804061   -0.4600
      7 C7         -3.7860    4.9465   50.8459 C.2     1  ZINC001300804061    0.3600
      8 N8         -3.8413    6.1505   51.3674 N.2     1  ZINC001300804061   -0.3000
      9 N9         -4.9693    6.7010   51.0920 N.2     1  ZINC001300804061   -0.2500
     10 C10        -5.7055    5.8798   50.3757 C.2     1  ZINC001300804061    0.2600
     11 C11        -7.0598    6.1398   49.8627 C.2     1  ZINC001300804061    0.0400
     12 C12        -7.9113    7.1069   50.3058 C.2     1  ZINC001300804061   -0.1300
     13 C13        -9.0868    6.9944   49.5385 C.2     1  ZINC001300804061   -0.2100
     14 C14        -8.8995    5.9770   48.6745 C.2     1  ZINC001300804061    0.0100
     15 C15        -9.8994    5.4959   47.6547 C.3     1  ZINC001300804061   -0.0800
     16 O16        -7.6723    5.4666   48.8688 O.3     1  ZINC001300804061   -0.1700
     17 N17        -4.9660    4.7324   50.1920 N.pl3   1  ZINC001300804061   -0.4600
     18 C18        -5.3651    3.5301   49.4563 C.3     1  ZINC001300804061    0.1200
     19 C19        -5.6622    2.4017   50.4459 C.3     1  ZINC001300804061   -0.1000
     20 H20        -4.9934    2.4863   51.3026 H       1  ZINC001300804061    0.0900
     21 C21        -5.4406    1.0562   49.7613 C.3     1  ZINC001300804061   -0.1200
     22 C22        -5.4663   -0.0789   50.7806 C.3     1  ZINC001300804061   -0.1200
     23 C23        -6.8919   -0.2826   51.3001 C.3     1  ZINC001300804061   -0.0800
     24 S24        -7.4215    1.2244   52.1671 S.3     1  ZINC001300804061   -0.2600
     25 C25        -7.1134    2.5113   50.9211 C.3     1  ZINC001300804061   -0.0700
     26 C26        -2.0290    4.2038   52.2213 C.3     1  ZINC001300804061    0.0600
     27 C27        -0.9597    3.1163   52.3471 C.3     1  ZINC001300804061   -0.1100
     28 C28         0.0337    3.2466   51.1892 C.3     1  ZINC001300804061   -0.0900
     29 H29         0.5356    4.2124   51.2468 H       1  ZINC001300804061    0.0800
     30 C30         1.0710    2.1253   51.2768 C.3     1  ZINC001300804061   -0.1400
     31 H31        -0.1670    1.5131   47.8418 H       1  ZINC001300804061    0.0400
     32 H32        -1.1361    2.8848   47.2520 H       1  ZINC001300804061    0.0400
     33 H33         0.5885    2.7659   46.8278 H       1  ZINC001300804061    0.0900
     34 H34        -1.3293    5.2112   49.8701 H       1  ZINC001300804061    0.0700
     35 H35        -2.3513    4.1497   48.8720 H       1  ZINC001300804061    0.0800
     36 H36        -7.7215    7.8213   51.0933 H       1  ZINC001300804061    0.1600
     37 H37        -9.9714    7.6078   49.6260 H       1  ZINC001300804061    0.1600
     38 H38        -9.7533    6.0365   46.7195 H       1  ZINC001300804061    0.0900
     39 H39        -9.7586    4.4287   47.4832 H       1  ZINC001300804061    0.0800
     40 H40       -10.9094    5.6745   48.0237 H       1  ZINC001300804061    0.0900
     41 H41        -6.2585    3.7432   48.8694 H       1  ZINC001300804061    0.1100
     42 H42        -4.5570    3.2264   48.7908 H       1  ZINC001300804061    0.1000
     43 H43        -6.2272    0.8947   49.0243 H       1  ZINC001300804061    0.0700
     44 H44        -4.4740    1.0645   49.2577 H       1  ZINC001300804061    0.0800
     45 H45        -5.1187   -0.9976   50.3080 H       1  ZINC001300804061    0.0800
     46 H46        -4.8092    0.1684   51.6143 H       1  ZINC001300804061    0.0800
     47 H47        -7.5617   -0.4764   50.4623 H       1  ZINC001300804061    0.0800
     48 H48        -6.9124   -1.1268   51.9894 H       1  ZINC001300804061    0.1100
     49 H49        -7.2777    3.4941   51.3628 H       1  ZINC001300804061    0.1000
     50 H50        -7.7879    2.3709   50.0765 H       1  ZINC001300804061    0.0900
     51 H51        -1.5568    5.1849   52.2711 H       1  ZINC001300804061    0.0600
     52 H52        -2.7460    4.1041   53.0364 H       1  ZINC001300804061    0.0800
     53 H53        -0.4323    3.2323   53.2939 H       1  ZINC001300804061    0.0800
     54 H54        -1.4327    2.1349   52.3113 H       1  ZINC001300804061    0.0800
     55 H55         0.5685    1.1600   51.2169 H       1  ZINC001300804061    0.0500
     56 H56         1.7777    2.2189   50.4523 H       1  ZINC001300804061    0.0600
     57 H57         1.6059    2.1984   52.2237 H       1  ZINC001300804061    0.0600
@<TRIPOS>BOND
     1     1     2    1
     2     1    31    1
     3     1    32    1
     4     1    33    1
     5     2     3    1
     6     3     4    1
     7     3    28    1
     8     3     5    1
     9     5     6    1
    10     5    34    1
    11     5    35    1
    12     6     7    1
    13     6    26    1
    14     7    17    1
    15     7     8    2
    16     8     9    1
    17     9    10    2
    18    10    11    1
    19    10    17    1
    20    11    16    1
    21    11    12    2
    22    12    13    1
    23    12    36    1
    24    13    14    2
    25    13    37    1
    26    14    15    1
    27    14    16    1
    28    15    38    1
    29    15    39    1
    30    15    40    1
    31    17    18    1
    32    18    19    1
    33    18    41    1
    34    18    42    1
    35    19    20    1
    36    19    25    1
    37    19    21    1
    38    21    22    1
    39    21    43    1
    40    21    44    1
    41    22    23    1
    42    22    45    1
    43    22    46    1
    44    23    24    1
    45    23    47    1
    46    23    48    1
    47    24    25    1
    48    25    49    1
    49    25    50    1
    50    26    27    1
    51    26    51    1
    52    26    52    1
    53    27    28    1
    54    27    53    1
    55    27    54    1
    56    28    29    1
    57    28    30    1
    58    30    55    1
    59    30    56    1
    60    30    57    1
@<TRIPOS>SUBSTRUCTURE
     1 ZINC001300804061        1 TEMP              0 ****  ****    0 ROOT


##########                                Name:    ZINC000089894387
##########                DOCK_Rotatable_Bonds:                   8
##########                         Heavy_Atoms:                  22
##########                    Molecular_Weight:             326.823
##########                DOCK_Rotatable_Bonds:                   8
##########                       Formal_Charge:          -0.0300003
##########                     HBond_Acceptors:                   6
##########                        HBond_Donors:                   2
##########                         Heavy_Atoms:                  22
##########                          Grid_Score:          -30.221785
##########                     Grid_vdw_energy:          -30.535265
##########                      Grid_es_energy:            0.313481
##########           Internal_energy_repulsive:           11.526565

@<TRIPOS>MOLECULE
ZINC000089894387
 45 46 1 0 0
SMALL
USER_CHARGES


@<TRIPOS>ATOM
      1 C1        -11.8005   -1.4699   57.3450 C.3     1  ZINC000089894387   -0.1700
      2 C2        -10.2951   -1.2105   57.2574 C.3     1  ZINC000089894387    0.1700
      3 H3         -9.7797   -2.1402   57.0161 H       1  ZINC000089894387    0.0900
      4 N4        -10.0304   -0.2197   56.2113 N.am    1  ZINC000089894387   -0.7400
      5 C5         -9.7535   -0.6232   54.9555 C.2     1  ZINC000089894387    0.7100
      6 O6         -9.7218   -1.8096   54.6911 O.2     1  ZINC000089894387   -0.5900
      7 N7         -9.5115    0.2884   53.9927 N.am    1  ZINC000089894387   -0.7500
      8 C8         -9.2122   -0.1502   52.6273 C.3     1  ZINC000089894387    0.1400
      9 C9         -7.6972   -0.2712   52.4511 C.3     1  ZINC000089894387    0.0500
     10 O10        -7.3883   -0.4058   51.0624 O.3     1  ZINC000089894387   -0.3100
     11 C11        -6.5811    0.5408   50.5154 C.ar    1  ZINC000089894387    0.1400
     12 C12        -5.3155    0.1973   50.0630 C.ar    1  ZINC000089894387   -0.2100
     13 C13        -4.4961    1.1610   49.5072 C.ar    1  ZINC000089894387   -0.0700
     14 C14        -4.9361    2.4671   49.4013 C.ar    1  ZINC000089894387   -0.1500
     15 C15        -6.1983    2.8130   49.8521 C.ar    1  ZINC000089894387    0.0000
     16 Cl16       -6.7479    4.4542   49.7177 Cl      1  ZINC000089894387   -0.0600
     17 C17        -7.0238    1.8508   50.4033 C.ar    1  ZINC000089894387   -0.1500
     18 C18        -9.7897   -0.6810   58.6009 C.3     1  ZINC000089894387   -0.1000
     19 C19        -8.2585   -0.6423   58.5932 C.3     1  ZINC000089894387   -0.1600
     20 C20        -7.7644   -0.0381   59.9102 C.3     1  ZINC000089894387    0.0600
     21 O21        -8.3228    1.2672   60.0731 O.3     1  ZINC000089894387   -0.3800
     22 C22        -9.7504    1.2876   60.1348 C.3     1  ZINC000089894387    0.0600
     23 C23       -10.3242    0.7366   58.8267 C.3     1  ZINC000089894387   -0.1500
     24 H24       -12.3159   -0.5403   57.5863 H       1  ZINC000089894387    0.0600
     25 H25       -12.1604   -1.8471   56.3879 H       1  ZINC000089894387    0.0600
     26 H26       -11.9974   -2.2071   58.1234 H       1  ZINC000089894387    0.0700
     27 H27       -10.0545    0.7267   56.4224 H       1  ZINC000089894387    0.3900
     28 H28        -9.5356    1.2348   54.2038 H       1  ZINC000089894387    0.4000
     29 H29        -9.6775   -1.1191   52.4467 H       1  ZINC000089894387    0.0800
     30 H30        -9.6033    0.5788   51.9176 H       1  ZINC000089894387    0.0900
     31 H31        -7.2129    0.6219   52.8462 H       1  ZINC000089894387    0.0900
     32 H32        -7.3375   -1.1479   52.9898 H       1  ZINC000089894387    0.0700
     33 H33        -4.9707   -0.8228   50.1457 H       1  ZINC000089894387    0.1300
     34 H34        -3.5107    0.8937   49.1554 H       1  ZINC000089894387    0.1400
     35 H35        -4.2941    3.2189   48.9665 H       1  ZINC000089894387    0.1400
     36 H36        -8.0087    2.1206   50.7547 H       1  ZINC000089894387    0.1400
     37 H37       -10.1353   -1.3331   59.4031 H       1  ZINC000089894387    0.0800
     38 H38        -7.8690   -1.6550   58.4882 H       1  ZINC000089894387    0.0700
     39 H39        -7.9138   -0.0303   57.7597 H       1  ZINC000089894387    0.0800
     40 H40        -8.0750   -0.6725   60.7404 H       1  ZINC000089894387    0.0500
     41 H41        -6.6767    0.0314   59.8929 H       1  ZINC000089894387    0.0900
     42 H42       -10.0870    0.6705   60.9679 H       1  ZINC000089894387    0.0500
     43 H43       -10.0933    2.3120   60.2792 H       1  ZINC000089894387    0.1000
     44 H44       -10.0212    1.3765   57.9980 H       1  ZINC000089894387    0.0800
     45 H45       -11.4121    0.7101   58.8889 H       1  ZINC000089894387    0.0800
@<TRIPOS>BOND
     1     1     2    1
     2     1    24    1
     3     1    25    1
     4     1    26    1
     5     2     3    1
     6     2     4    1
     7     2    18    1
     8     4     5   am
     9     4    27    1
    10     5     6    2
    11     5     7   am
    12     7     8    1
    13     7    28    1
    14     8     9    1
    15     8    29    1
    16     8    30    1
    17     9    10    1
    18     9    31    1
    19     9    32    1
    20    10    11    1
    21    11    17   ar
    22    11    12   ar
    23    12    13   ar
    24    12    33    1
    25    13    14   ar
    26    13    34    1
    27    14    15   ar
    28    14    35    1
    29    15    16    1
    30    15    17   ar
    31    17    36    1
    32    18    23    1
    33    18    19    1
    34    18    37    1
    35    19    20    1
    36    19    38    1
    37    19    39    1
    38    20    21    1
    39    20    40    1
    40    20    41    1
    41    21    22    1
    42    22    23    1
    43    22    42    1
    44    22    43    1
    45    23    44    1
    46    23    45    1
@<TRIPOS>SUBSTRUCTURE
     1 ZINC000089894387        1 TEMP              0 ****  ****    0 ROOT


##########                                Name:    ZINC000478980774
##########                DOCK_Rotatable_Bonds:                   4
##########                         Heavy_Atoms:                  26
##########                    Molecular_Weight:             401.818
##########                DOCK_Rotatable_Bonds:                   4
##########                       Formal_Charge:          -0.0100001
##########                     HBond_Acceptors:                   9
##########                        HBond_Donors:                   1
##########                         Heavy_Atoms:                  26
##########                          Grid_Score:          -30.214514
##########                     Grid_vdw_energy:          -30.196362
##########                      Grid_es_energy:           -0.018153
##########           Internal_energy_repulsive:            8.018486

@<TRIPOS>MOLECULE
ZINC000478980774
 40 42 1 0 0
SMALL
USER_CHARGES


@<TRIPOS>ATOM
      1 C1         -6.8953    2.9509   49.7401 C.3     1  ZINC000478980774   -0.1400
      2 C2         -6.3957    1.5146   49.9078 C.3     1  ZINC000478980774   -0.4600
      3 H3         -6.9446    0.8577   49.2329 H       1  ZINC000478980774    0.1500
      4 C4         -4.9254    1.4530   49.5830 C.2     1  ZINC000478980774    0.5400
      5 O5         -4.4294    0.4103   49.2117 O.2     1  ZINC000478980774   -0.5000
      6 N6         -4.1615    2.5567   49.7051 N.am    1  ZINC000478980774   -0.6600
      7 C7         -2.7946    2.4995   49.4032 C.ar    1  ZINC000478980774    0.1600
      8 C8         -1.8539    2.7296   50.3975 C.ar    1  ZINC000478980774   -0.1200
      9 C9         -0.5050    2.6740   50.1010 C.ar    1  ZINC000478980774   -0.0600
     10 C10        -0.0880    2.3887   48.8114 C.ar    1  ZINC000478980774    0.0100
     11 O11         1.1604    2.2781   48.2683 O.3     1  ZINC000478980774   -0.2900
     12 C12         0.9776    1.5757   47.0248 C.3     1  ZINC000478980774    0.5700
     13 F13         1.8848    2.0341   46.0634 F       1  ZINC000478980774   -0.1100
     14 F14         1.1188    0.1968   47.2138 F       1  ZINC000478980774   -0.1500
     15 O15        -0.3719    1.9014   46.6429 O.3     1  ZINC000478980774   -0.2800
     16 C16        -1.0300    2.1570   47.8112 C.ar    1  ZINC000478980774    0.0500
     17 C17        -2.3808    2.2071   48.1104 C.ar    1  ZINC000478980774   -0.0900
     18 S18        -6.6594    0.9786   51.6207 S.o     1  ZINC000478980774    1.3000
     19 O19        -5.9181    1.8150   52.4981 O.2     1  ZINC000478980774   -0.7800
     20 C20        -8.4336    1.2636   51.8687 C.3     1  ZINC000478980774   -0.4300
     21 C21        -8.8161    0.8601   53.2695 C.ar    1  ZINC000478980774   -0.0600
     22 C22        -9.2779   -0.4183   53.5187 C.ar    1  ZINC000478980774   -0.1100
     23 C23        -9.6289   -0.7886   54.8037 C.ar    1  ZINC000478980774   -0.1100
     24 C24        -9.5187    0.1197   55.8398 C.ar    1  ZINC000478980774   -0.1100
     25 C25        -9.0568    1.3988   55.5916 C.ar    1  ZINC000478980774   -0.1100
     26 C26        -8.6997    1.7679   54.3073 C.ar    1  ZINC000478980774   -0.0300
     27 Cl27       -8.1196    3.3741   53.9949 Cl      1  ZINC000478980774   -0.0600
     28 H28        -7.9588    2.9953   49.9751 H       1  ZINC000478980774    0.0800
     29 H29        -6.3464    3.6076   50.4150 H       1  ZINC000478980774    0.0700
     30 H30        -6.7368    3.2729   48.7110 H       1  ZINC000478980774    0.0700
     31 H31        -4.5580    3.3905   50.0022 H       1  ZINC000478980774    0.4200
     32 H32        -2.1763    2.9527   51.4039 H       1  ZINC000478980774    0.1500
     33 H33         0.2250    2.8537   50.8763 H       1  ZINC000478980774    0.1500
     34 H34        -3.1124    2.0229   47.3378 H       1  ZINC000478980774    0.1600
     35 H35        -8.6559    2.3205   51.7215 H       1  ZINC000478980774    0.1100
     36 H36        -9.0007    0.6697   51.1520 H       1  ZINC000478980774    0.1300
     37 H37        -9.3650   -1.1281   52.7095 H       1  ZINC000478980774    0.1400
     38 H38        -9.9899   -1.7878   54.9980 H       1  ZINC000478980774    0.1300
     39 H39        -9.7937   -0.1699   56.8432 H       1  ZINC000478980774    0.1300
     40 H40        -8.9706    2.1084   56.4013 H       1  ZINC000478980774    0.1300
@<TRIPOS>BOND
     1     1     2    1
     2     1    28    1
     3     1    29    1
     4     1    30    1
     5     2     3    1
     6     2     4    1
     7     2    18    1
     8     4     5    2
     9     4     6   am
    10     6     7    1
    11     6    31    1
    12     7    17   ar
    13     7     8   ar
    14     8     9   ar
    15     8    32    1
    16     9    10   ar
    17     9    33    1
    18    10    16   ar
    19    10    11    1
    20    11    12    1
    21    12    13    1
    22    12    14    1
    23    12    15    1
    24    15    16    1
    25    16    17   ar
    26    17    34    1
    27    18    19    2
    28    18    20    1
    29    20    21    1
    30    20    35    1
    31    20    36    1
    32    21    26   ar
    33    21    22   ar
    34    22    23   ar
    35    22    37    1
    36    23    24   ar
    37    23    38    1
    38    24    25   ar
    39    24    39    1
    40    25    26   ar
    41    25    40    1
    42    26    27    1
@<TRIPOS>SUBSTRUCTURE
     1 ZINC000478980774        1 TEMP              0 ****  ****    0 ROOT


##########                                Name:    ZINC000477669194
##########                DOCK_Rotatable_Bonds:                   6
##########                         Heavy_Atoms:                  26
##########                    Molecular_Weight:             387.483
##########                DOCK_Rotatable_Bonds:                   6
##########                       Formal_Charge:         4.47035e-07
##########                     HBond_Acceptors:                   8
##########                        HBond_Donors:                   2
##########                         Heavy_Atoms:                  26
##########                          Grid_Score:          -30.198647
##########                     Grid_vdw_energy:          -29.498663
##########                      Grid_es_energy:           -0.699983
##########           Internal_energy_repulsive:           26.636164

@<TRIPOS>MOLECULE
ZINC000477669194
 43 45 1 0 0
SMALL
USER_CHARGES


@<TRIPOS>ATOM
      1 C1         -3.6255    4.1776   53.6620 C.3     1  ZINC000477669194   -0.0800
      2 C2         -2.3977    3.9127   52.8293 C.2     1  ZINC000477669194    0.0500
      3 N3         -2.4129    3.5029   51.6082 N.2     1  ZINC000477669194   -0.4900
      4 C4         -1.2408    3.3194   51.0179 C.2     1  ZINC000477669194    0.1200
      5 C5         -1.1072    2.8515   49.6169 C.ar    1  ZINC000477669194   -0.0600
      6 C6          0.1543    2.6990   49.0476 C.ar    1  ZINC000477669194   -0.0800
      7 C7          0.2735    2.2632   47.7428 C.ar    1  ZINC000477669194   -0.1400
      8 C8         -0.8562    1.9767   46.9973 C.ar    1  ZINC000477669194   -0.0900
      9 C9         -2.1138    2.1246   47.5514 C.ar    1  ZINC000477669194   -0.1300
     10 C10        -2.2487    2.5555   48.8625 C.ar    1  ZINC000477669194    0.1800
     11 N11        -3.5195    2.7051   49.4246 N.am    1  ZINC000477669194   -0.6500
     12 C12        -4.3384    1.6402   49.5322 C.2     1  ZINC000477669194    0.5600
     13 O13        -3.9716    0.5490   49.1403 O.2     1  ZINC000477669194   -0.5200
     14 C14        -5.6795    1.7981   50.1254 C.ar    1  ZINC000477669194   -0.1500
     15 C15        -6.2537    0.7480   50.8481 C.ar    1  ZINC000477669194   -0.0600
     16 C16        -7.5050    0.8985   51.4008 C.ar    1  ZINC000477669194   -0.1400
     17 C17        -8.1989    2.0948   51.2409 C.ar    1  ZINC000477669194    0.1700
     18 N18        -9.4631    2.2436   51.8006 N.am    1  ZINC000477669194   -1.0600
     19 S19       -10.1501    0.9915   52.6387 S.o2    1  ZINC000477669194    2.6100
     20 C20       -11.7612    1.6330   53.1710 C.3     1  ZINC000477669194   -0.6700
     21 O21       -10.3171   -0.0312   51.6663 O.2     1  ZINC000477669194   -0.9400
     22 O22        -9.2930    0.8062   53.7569 O.2     1  ZINC000477669194   -0.9500
     23 C23        -7.6296    3.1424   50.5223 C.ar    1  ZINC000477669194   -0.1600
     24 C24        -6.3767    3.0000   49.9713 C.ar    1  ZINC000477669194   -0.0300
     25 C25        -0.1801    3.5960   51.8033 C.2     1  ZINC000477669194   -0.2600
     26 S26        -0.7900    4.1209   53.3706 S.3     1  ZINC000477669194    0.1500
     27 H27        -3.3259    4.5188   54.6529 H       1  ZINC000477669194    0.0800
     28 H28        -4.2318    4.9453   53.1812 H       1  ZINC000477669194    0.0900
     29 H29        -4.2070    3.2602   53.7541 H       1  ZINC000477669194    0.0900
     30 H30         1.0387    2.9219   49.6259 H       1  ZINC000477669194    0.1300
     31 H31         1.2526    2.1457   47.3023 H       1  ZINC000477669194    0.1300
     32 H32        -0.7550    1.6363   45.9774 H       1  ZINC000477669194    0.1300
     33 H33        -2.9920    1.9001   46.9642 H       1  ZINC000477669194    0.1500
     34 H34        -3.8121    3.5755   49.7373 H       1  ZINC000477669194    0.4200
     35 H35        -5.7162   -0.1804   50.9722 H       1  ZINC000477669194    0.1300
     36 H36        -7.9493    0.0876   51.9587 H       1  ZINC000477669194    0.1400
     37 H37        -9.9424    3.0809   51.7001 H       1  ZINC000477669194    0.4300
     38 H38       -12.3830    1.8246   52.2964 H       1  ZINC000477669194    0.1300
     39 H39       -12.2510    0.8993   53.8113 H       1  ZINC000477669194    0.1400
     40 H40       -11.6178    2.5606   53.7251 H       1  ZINC000477669194    0.1300
     41 H41        -8.1702    4.0694   50.4004 H       1  ZINC000477669194    0.1700
     42 H42        -5.9355    3.8132   49.4142 H       1  ZINC000477669194    0.1500
     43 H43         0.8590    3.5141   51.5205 H       1  ZINC000477669194    0.1800
@<TRIPOS>BOND
     1     1     2    1
     2     1    27    1
     3     1    28    1
     4     1    29    1
     5     2    26    1
     6     2     3    2
     7     3     4    1
     8     4     5    1
     9     4    25    2
    10     5    10   ar
    11     5     6   ar
    12     6     7   ar
    13     6    30    1
    14     7     8   ar
    15     7    31    1
    16     8     9   ar
    17     8    32    1
    18     9    10   ar
    19     9    33    1
    20    10    11    1
    21    11    12   am
    22    11    34    1
    23    12    13    2
    24    12    14    1
    25    14    24   ar
    26    14    15   ar
    27    15    16   ar
    28    15    35    1
    29    16    17   ar
    30    16    36    1
    31    17    18    1
    32    17    23   ar
    33    18    19   am
    34    18    37    1
    35    19    20    1
    36    19    21    2
    37    19    22    2
    38    20    38    1
    39    20    39    1
    40    20    40    1
    41    23    24   ar
    42    23    41    1
    43    24    42    1
    44    25    26    1
    45    25    43    1
@<TRIPOS>SUBSTRUCTURE
     1 ZINC000477669194        1 TEMP              0 ****  ****    0 ROOT


##########                                Name:    ZINC000937331732
##########                DOCK_Rotatable_Bonds:                   6
##########                         Heavy_Atoms:                  24
##########                    Molecular_Weight:              333.35
##########                DOCK_Rotatable_Bonds:                   6
##########                       Formal_Charge:          -0.0299999
##########                     HBond_Acceptors:                  10
##########                        HBond_Donors:                   1
##########                         Heavy_Atoms:                  24
##########                          Grid_Score:          -30.189928
##########                     Grid_vdw_energy:          -28.368502
##########                      Grid_es_energy:           -1.821427
##########           Internal_energy_repulsive:           26.488371

@<TRIPOS>MOLECULE
ZINC000937331732
 43 45 1 0 0
SMALL
USER_CHARGES


@<TRIPOS>ATOM
      1 C1         -6.6703    0.0333   50.6779 C.3     1  ZINC000937331732    0.0600
      2 N2         -5.8474    1.2408   50.5732 N.am    1  ZINC000937331732   -0.6100
      3 C3         -4.6758    1.2023   49.9082 C.2     1  ZINC000937331732    0.5000
      4 O4         -4.3020    0.1675   49.3978 O.2     1  ZINC000937331732   -0.5200
      5 C5         -3.8301    2.4448   49.7989 C.3     1  ZINC000937331732    0.1500
      6 N6         -2.8681    2.2861   48.7054 N.am    1  ZINC000937331732   -0.4400
      7 N7         -3.1711    1.9961   47.3679 N.2     1  ZINC000937331732   -0.2800
      8 C8         -2.0600    1.9346   46.7075 C.2     1  ZINC000937331732    0.2600
      9 N9         -1.0180    2.1762   47.5691 N.am    1  ZINC000937331732   -0.5600
     10 C10         0.4028    2.1965   47.2125 C.3     1  ZINC000937331732    0.1000
     11 C11        -1.5264    2.3976   48.7979 C.2     1  ZINC000937331732    0.6500
     12 O12        -0.8913    2.6450   49.8075 O.2     1  ZINC000937331732   -0.5500
     13 C13        -6.2981    2.4903   51.1914 C.3     1  ZINC000937331732    0.1300
     14 H14        -6.4825    3.2500   50.4319 H       1  ZINC000937331732    0.1200
     15 C15        -7.5691    2.2513   52.0487 C.3     1  ZINC000937331732   -0.1500
     16 C16        -7.4665    3.3996   53.0835 C.3     1  ZINC000937331732    0.1000
     17 N17        -6.0258    3.5198   53.3722 N.am    1  ZINC000937331732   -0.6000
     18 C18        -5.4905    4.0317   54.4981 C.2     1  ZINC000937331732    0.6200
     19 O19        -6.2153    4.4430   55.3836 O.2     1  ZINC000937331732   -0.5400
     20 C20        -4.0260    4.0933   54.6561 C.2     1  ZINC000937331732    0.1400
     21 N21        -3.1378    3.8052   53.7287 N.2     1  ZINC000937331732   -0.4400
     22 C22        -1.9159    3.9745   54.2287 C.2     1  ZINC000937331732   -0.0300
     23 C23        -2.0342    4.3835   55.5157 C.2     1  ZINC000937331732   -0.0200
     24 N24        -3.3579    4.4649   55.7889 N.pl3   1  ZINC000937331732   -0.5200
     25 C25        -5.2676    2.9905   52.2254 C.3     1  ZINC000937331732    0.1000
     26 H26        -6.3894   -0.5213   51.5733 H       1  ZINC000937331732    0.0700
     27 H27        -7.7217    0.3143   50.7396 H       1  ZINC000937331732    0.0800
     28 H28        -6.5122   -0.5915   49.7989 H       1  ZINC000937331732    0.0800
     29 H29        -4.4704    3.3036   49.5977 H       1  ZINC000937331732    0.1300
     30 H30        -3.2937    2.6027   50.7345 H       1  ZINC000937331732    0.1300
     31 H31        -1.9671    1.7269   45.6516 H       1  ZINC000937331732    0.2300
     32 H32         0.5133    1.9884   46.1482 H       1  ZINC000937331732    0.1000
     33 H33         0.8195    3.1787   47.4358 H       1  ZINC000937331732    0.0800
     34 H34         0.9327    1.4375   47.7879 H       1  ZINC000937331732    0.0800
     35 H35        -8.4714    2.3487   51.4451 H       1  ZINC000937331732    0.0900
     36 H36        -7.5322    1.2787   52.5394 H       1  ZINC000937331732    0.0800
     37 H37        -7.8471    4.3283   52.6584 H       1  ZINC000937331732    0.0800
     38 H38        -8.0150    3.1434   53.9899 H       1  ZINC000937331732    0.1100
     39 H39        -0.9884    3.8136   53.6993 H       1  ZINC000937331732    0.1800
     40 H40        -1.2245    4.6060   56.1948 H       1  ZINC000937331732    0.1900
     41 H41        -3.7568    4.7315   56.6319 H       1  ZINC000937331732    0.4300
     42 H42        -4.6375    2.1618   52.5483 H       1  ZINC000937331732    0.0800
     43 H43        -4.6528    3.7793   51.7918 H       1  ZINC000937331732    0.0800
@<TRIPOS>BOND
     1     1     2    1
     2     1    26    1
     3     1    27    1
     4     1    28    1
     5     2     3   am
     6     2    13    1
     7     3     4    2
     8     3     5    1
     9     5     6    1
    10     5    29    1
    11     5    30    1
    12     6    11   am
    13     6     7    1
    14     7     8    2
    15     8     9    1
    16     8    31    1
    17     9    10    1
    18     9    11   am
    19    10    32    1
    20    10    33    1
    21    10    34    1
    22    11    12    2
    23    13    14    1
    24    13    25    1
    25    13    15    1
    26    15    16    1
    27    15    35    1
    28    15    36    1
    29    16    17    1
    30    16    37    1
    31    16    38    1
    32    17    18   am
    33    17    25    1
    34    18    19    2
    35    18    20    1
    36    20    24    1
    37    20    21    2
    38    21    22    1
    39    22    23    2
    40    22    39    1
    41    23    24    1
    42    23    40    1
    43    24    41    1
    44    25    42    1
    45    25    43    1
@<TRIPOS>SUBSTRUCTURE
     1 ZINC000937331732        1 TEMP              0 ****  ****    0 ROOT


##########                                Name:    ZINC000854500114
##########                DOCK_Rotatable_Bonds:                   7
##########                         Heavy_Atoms:                  24
##########                    Molecular_Weight:             399.288
##########                DOCK_Rotatable_Bonds:                   7
##########                       Formal_Charge:          -0.0399992
##########                     HBond_Acceptors:                   7
##########                        HBond_Donors:                   2
##########                         Heavy_Atoms:                  24
##########                          Grid_Score:          -30.183920
##########                     Grid_vdw_energy:          -29.261948
##########                      Grid_es_energy:           -0.921972
##########           Internal_energy_repulsive:           74.378349

@<TRIPOS>MOLECULE
ZINC000854500114
 47 49 1 0 0
SMALL
USER_CHARGES


@<TRIPOS>ATOM
      1 O1          0.1508    1.5427   46.4369 O.2     1  ZINC000854500114   -0.5800
      2 C2          0.7750    2.3937   47.0393 C.2     1  ZINC000854500114    0.6600
      3 N3          2.0355    2.6939   46.6684 N.am    1  ZINC000854500114   -0.7100
      4 C4          2.6552    1.9902   45.5427 C.3     1  ZINC000854500114    0.1600
      5 C5          3.7244    2.8858   44.8837 C.3     1  ZINC000854500114   -0.1400
      6 C6          5.0529    2.4392   45.5432 C.3     1  ZINC000854500114   -0.1300
      7 C7          4.8715    0.9065   45.6733 C.3     1  ZINC000854500114   -0.1300
      8 C8          3.3845    0.7318   46.0448 C.3     1  ZINC000854500114   -0.1300
      9 O9          0.2057    3.0404   48.0738 O.3     1  ZINC000854500114   -0.3600
     10 C10        -1.1675    2.6930   48.3930 C.3     1  ZINC000854500114    0.1000
     11 C11        -1.6445    3.5356   49.5777 C.3     1  ZINC000854500114    0.1500
     12 H12        -1.6914    4.5844   49.2848 H       1  ZINC000854500114    0.0900
     13 C13        -0.6707    3.3725   50.7490 C.3     1  ZINC000854500114   -0.1300
     14 C14        -1.2248    4.1044   51.9735 C.3     1  ZINC000854500114   -0.1200
     15 C15        -2.5681    3.4895   52.3730 C.3     1  ZINC000854500114   -0.1400
     16 C16        -3.5634    3.6539   51.2200 C.3     1  ZINC000854500114    0.0900
     17 N17        -2.9768    3.0821   49.9999 N.am    1  ZINC000854500114   -0.6100
     18 C18        -3.6459    2.1560   49.2851 C.2     1  ZINC000854500114    0.5900
     19 O19        -3.1495    1.6904   48.2770 O.2     1  ZINC000854500114   -0.4900
     20 C20        -4.9771    1.7080   49.7243 C.2     1  ZINC000854500114   -0.0300
     21 C21        -5.2572    0.7870   50.7187 C.2     1  ZINC000854500114   -0.1200
     22 C22        -6.6514    0.7011   50.7613 C.2     1  ZINC000854500114    0.0200
     23 Br23       -7.6646   -0.3959   51.9215 Br      1  ZINC000854500114    0.0400
     24 N24        -7.1313    1.5153   49.8555 N.2     1  ZINC000854500114   -0.2400
     25 N25        -6.1838    2.1222   49.2363 N.pl3   1  ZINC000854500114   -0.3700
     26 H26         2.5325    3.3759   47.1467 H       1  ZINC000854500114    0.4000
     27 H27         1.8954    1.7146   44.8112 H       1  ZINC000854500114    0.0900
     28 H28         3.7559    2.7137   43.8078 H       1  ZINC000854500114    0.0800
     29 H29         3.5267    3.9362   45.0973 H       1  ZINC000854500114    0.0700
     30 H30         5.9014    2.6746   44.9006 H       1  ZINC000854500114    0.0700
     31 H31         5.1707    2.8990   46.5243 H       1  ZINC000854500114    0.0700
     32 H32         5.0882    0.4148   44.7250 H       1  ZINC000854500114    0.0700
     33 H33         5.5108    0.5125   46.4634 H       1  ZINC000854500114    0.0700
     34 H34         3.2773    0.6445   47.1260 H       1  ZINC000854500114    0.0700
     35 H35         2.9792   -0.1545   45.5564 H       1  ZINC000854500114    0.0800
     36 H36        -1.8022    2.8889   47.5288 H       1  ZINC000854500114    0.1000
     37 H37        -1.2239    1.6360   48.6530 H       1  ZINC000854500114    0.0700
     38 H38        -0.5537    2.3138   50.9802 H       1  ZINC000854500114    0.0800
     39 H39         0.2969    3.7956   50.4792 H       1  ZINC000854500114    0.0900
     40 H40        -0.5221    4.0108   52.8014 H       1  ZINC000854500114    0.0800
     41 H41        -1.3649    5.1585   51.7339 H       1  ZINC000854500114    0.0700
     42 H42        -2.4332    2.4297   52.5888 H       1  ZINC000854500114    0.0700
     43 H43        -2.9509    3.9958   53.2591 H       1  ZINC000854500114    0.0800
     44 H44        -4.4897    3.1317   51.4597 H       1  ZINC000854500114    0.0800
     45 H45        -3.7686    4.7127   51.0627 H       1  ZINC000854500114    0.0800
     46 H46        -4.5489    0.2491   51.3313 H       1  ZINC000854500114    0.1700
     47 H47        -6.3062    2.7713   48.5259 H       1  ZINC000854500114    0.4500
@<TRIPOS>BOND
     1     1     2    2
     2     2     3   am
     3     2     9    1
     4     3     4    1
     5     3    26    1
     6     4     8    1
     7     4     5    1
     8     4    27    1
     9     5     6    1
    10     5    28    1
    11     5    29    1
    12     6     7    1
    13     6    30    1
    14     6    31    1
    15     7     8    1
    16     7    32    1
    17     7    33    1
    18     8    34    1
    19     8    35    1
    20     9    10    1
    21    10    11    1
    22    10    36    1
    23    10    37    1
    24    11    12    1
    25    11    17    1
    26    11    13    1
    27    13    14    1
    28    13    38    1
    29    13    39    1
    30    14    15    1
    31    14    40    1
    32    14    41    1
    33    15    16    1
    34    15    42    1
    35    15    43    1
    36    16    17    1
    37    16    44    1
    38    16    45    1
    39    17    18   am
    40    18    19    2
    41    18    20    1
    42    20    25    1
    43    20    21    2
    44    21    22    1
    45    21    46    1
    46    22    23    1
    47    22    24    2
    48    24    25    1
    49    25    47    1
@<TRIPOS>SUBSTRUCTURE
     1 ZINC000854500114        1 TEMP              0 ****  ****    0 ROOT


##########                                Name:    ZINC000130059363
##########                DOCK_Rotatable_Bonds:                   4
##########                         Heavy_Atoms:                  29
##########                    Molecular_Weight:             389.497
##########                DOCK_Rotatable_Bonds:                   4
##########                       Formal_Charge:          -0.0100003
##########                     HBond_Acceptors:                   5
##########                        HBond_Donors:                   0
##########                         Heavy_Atoms:                  29
##########                          Grid_Score:          -30.175346
##########                     Grid_vdw_energy:          -29.976593
##########                      Grid_es_energy:           -0.198754
##########           Internal_energy_repulsive:           28.513075

@<TRIPOS>MOLECULE
ZINC000130059363
 56 60 1 0 0
SMALL
USER_CHARGES


@<TRIPOS>ATOM
      1 C1         -1.6107    3.7141   52.9216 C.3     1  ZINC000130059363   -0.1200
      2 C2         -1.3222    3.3500   51.4881 C.ar    1  ZINC000130059363    0.1900
      3 N3         -0.2544    2.6389   51.1997 N.ar    1  ZINC000130059363   -0.4800
      4 C4          0.0400    2.2942   49.9515 C.ar    1  ZINC000130059363    0.2000
      5 C5          1.2562    1.4911   49.6818 C.ar    1  ZINC000130059363   -0.0600
      6 C6          2.1011    1.1272   50.7296 C.ar    1  ZINC000130059363   -0.1000
      7 C7          3.2318    0.3790   50.4726 C.ar    1  ZINC000130059363   -0.1200
      8 C8          3.5279   -0.0096   49.1783 C.ar    1  ZINC000130059363   -0.1000
      9 C9          2.6936    0.3489   48.1346 C.ar    1  ZINC000130059363   -0.1300
     10 C10         1.5568    1.0916   48.3803 C.ar    1  ZINC000130059363   -0.0700
     11 C11        -0.7807    2.6777   48.8910 C.ar    1  ZINC000130059363   -0.1800
     12 C12        -1.9121    3.4255   49.1505 C.ar    1  ZINC000130059363   -0.0400
     13 C13        -2.1947    3.7667   50.4802 C.ar    1  ZINC000130059363   -0.1900
     14 C14        -3.3930    4.5648   50.8100 C.2     1  ZINC000130059363    0.5700
     15 O15        -3.3232    5.7778   50.8509 O.2     1  ZINC000130059363   -0.5200
     16 N16        -4.5640    3.9482   51.0654 N.am    1  ZINC000130059363   -0.6000
     17 C17        -5.7681    4.7265   51.3893 C.3     1  ZINC000130059363    0.1000
     18 C18        -6.8811    4.3229   50.4176 C.3     1  ZINC000130059363   -0.1500
     19 C19        -7.0797    2.8119   50.4571 C.3     1  ZINC000130059363    0.1500
     20 H20        -7.8495    2.5516   49.7305 H       1  ZINC000130059363    0.0700
     21 C21        -5.7944    2.0832   50.0697 C.3     1  ZINC000130059363   -0.1100
     22 H22        -5.5272    2.3181   49.0394 H       1  ZINC000130059363    0.1000
     23 C23        -6.0406    0.5735   50.2201 C.3     1  ZINC000130059363   -0.1200
     24 C24        -6.2114    0.2629   51.7092 C.3     1  ZINC000130059363   -0.1400
     25 C25        -7.1850    1.2222   52.3306 C.2     1  ZINC000130059363    0.5200
     26 O26        -7.6700    0.9331   53.4040 O.2     1  ZINC000130059363   -0.5400
     27 N27        -7.5296    2.3751   51.7694 N.am    1  ZINC000130059363   -0.5700
     28 C28        -8.4440    3.2553   52.5010 C.3     1  ZINC000130059363    0.0700
     29 C29        -9.7121    3.7144   51.7783 C.3     1  ZINC000130059363   -0.1800
     30 C30        -9.8044    2.6826   52.9042 C.3     1  ZINC000130059363   -0.1600
     31 C31        -4.6669    2.4845   51.0205 C.3     1  ZINC000130059363    0.1100
     32 H32        -2.3047    2.9896   53.3478 H       1  ZINC000130059363    0.0800
     33 H33        -0.6821    3.7069   53.4923 H       1  ZINC000130059363    0.0800
     34 H34        -2.0541    4.7090   52.9617 H       1  ZINC000130059363    0.1000
     35 H35         1.8713    1.4306   51.7404 H       1  ZINC000130059363    0.1300
     36 H36         3.8869    0.0965   51.2833 H       1  ZINC000130059363    0.1300
     37 H37         4.4141   -0.5948   48.9818 H       1  ZINC000130059363    0.1300
     38 H38         2.9301    0.0429   47.1262 H       1  ZINC000130059363    0.1300
     39 H39         0.9062    1.3709   47.5647 H       1  ZINC000130059363    0.1400
     40 H40        -0.5339    2.3935   47.8787 H       1  ZINC000130059363    0.1400
     41 H41        -2.5655    3.7366   48.3488 H       1  ZINC000130059363    0.1400
     42 H42        -6.0788    4.5132   52.4122 H       1  ZINC000130059363    0.0700
     43 H43        -5.5568    5.7906   51.2838 H       1  ZINC000130059363    0.0900
     44 H44        -7.8091    4.8178   50.7040 H       1  ZINC000130059363    0.0900
     45 H45        -6.6072    4.6260   49.4071 H       1  ZINC000130059363    0.0800
     46 H46        -6.9447    0.2927   49.6799 H       1  ZINC000130059363    0.0800
     47 H47        -5.1885    0.0208   49.8245 H       1  ZINC000130059363    0.0900
     48 H48        -6.5833   -0.7551   51.8254 H       1  ZINC000130059363    0.1000
     49 H49        -5.2472    0.3521   52.2096 H       1  ZINC000130059363    0.1000
     50 H50        -7.9716    3.9596   53.1856 H       1  ZINC000130059363    0.1100
     51 H51       -10.0739    4.7211   51.9874 H       1  ZINC000130059363    0.1100
     52 H52        -9.8658    3.3617   50.7585 H       1  ZINC000130059363    0.1000
     53 H53       -10.0188    1.6510   52.6252 H       1  ZINC000130059363    0.1000
     54 H54       -10.2269    3.0105   53.8540 H       1  ZINC000130059363    0.1000
     55 H55        -3.7258    2.0625   50.6681 H       1  ZINC000130059363    0.1000
     56 H56        -4.8834    2.1096   52.0209 H       1  ZINC000130059363    0.0700
@<TRIPOS>BOND
     1     1     2    1
     2     1    32    1
     3     1    33    1
     4     1    34    1
     5     2    13   ar
     6     2     3   ar
     7     3     4   ar
     8     4     5    1
     9     4    11   ar
    10     5    10   ar
    11     5     6   ar
    12     6     7   ar
    13     6    35    1
    14     7     8   ar
    15     7    36    1
    16     8     9   ar
    17     8    37    1
    18     9    10   ar
    19     9    38    1
    20    10    39    1
    21    11    12   ar
    22    11    40    1
    23    12    13   ar
    24    12    41    1
    25    13    14    1
    26    14    15    2
    27    14    16   am
    28    16    31    1
    29    16    17    1
    30    17    18    1
    31    17    42    1
    32    17    43    1
    33    18    19    1
    34    18    44    1
    35    18    45    1
    36    19    20    1
    37    19    27    1
    38    19    21    1
    39    21    22    1
    40    21    23    1
    41    21    31    1
    42    23    24    1
    43    23    46    1
    44    23    47    1
    45    24    25    1
    46    24    48    1
    47    24    49    1
    48    25    26    2
    49    25    27   am
    50    27    28    1
    51    28    30    1
    52    28    29    1
    53    28    50    1
    54    29    30    1
    55    29    51    1
    56    29    52    1
    57    30    53    1
    58    30    54    1
    59    31    55    1
    60    31    56    1
@<TRIPOS>SUBSTRUCTURE
     1 ZINC000130059363        1 TEMP              0 ****  ****    0 ROOT


##########                                Name:    ZINC000788423111
##########                DOCK_Rotatable_Bonds:                   7
##########                         Heavy_Atoms:                  23
##########                    Molecular_Weight:             399.243
##########                DOCK_Rotatable_Bonds:                   7
##########                       Formal_Charge:         1.04308e-07
##########                     HBond_Acceptors:                   8
##########                        HBond_Donors:                   1
##########                         Heavy_Atoms:                  23
##########                          Grid_Score:          -30.111712
##########                     Grid_vdw_energy:          -30.112505
##########                      Grid_es_energy:            0.000794
##########           Internal_energy_repulsive:            3.911906

@<TRIPOS>MOLECULE
ZINC000788423111
 35 37 1 0 0
SMALL
USER_CHARGES


@<TRIPOS>ATOM
      1 O1         -6.9952    1.8456   49.3872 O.3     1  ZINC000788423111   -0.5400
      2 C2         -6.1720    1.2398   50.3860 C.3     1  ZINC000788423111    0.1000
      3 H3         -6.0311    1.9366   51.2123 H       1  ZINC000788423111    0.1300
      4 C4         -4.8125    0.8854   49.7802 C.3     1  ZINC000788423111    0.0300
      5 O5         -4.2707    2.0324   49.1221 O.3     1  ZINC000788423111   -0.2900
      6 C6         -3.0355    2.4420   49.5134 C.ar    1  ZINC000788423111    0.1700
      7 C7         -1.9738    2.3947   48.6225 C.ar    1  ZINC000788423111   -0.2400
      8 C8         -0.7166    2.8121   49.0232 C.ar    1  ZINC000788423111    0.1500
      9 F9          0.3184    2.7665   48.1562 F       1  ZINC000788423111   -0.1300
     10 C10        -0.5196    3.2771   50.3124 C.ar    1  ZINC000788423111   -0.1600
     11 C11        -1.5781    3.3242   51.2018 C.ar    1  ZINC000788423111   -0.0300
     12 Br12       -1.3057    3.9598   52.9619 Br      1  ZINC000788423111   -0.0200
     13 C13        -2.8362    2.9134   50.8032 C.ar    1  ZINC000788423111   -0.1300
     14 C14        -6.8480   -0.0324   50.9012 C.3     1  ZINC000788423111    0.1000
     15 N15        -7.8753    0.3238   51.8829 N.pl3   1  ZINC000788423111   -0.1300
     16 N16        -8.3762    1.4988   52.0431 N.2     1  ZINC000788423111   -0.0500
     17 N17        -9.2515    1.4566   52.9895 N.2     1  ZINC000788423111   -0.2600
     18 C18        -9.2937    0.1919   53.4366 C.2     1  ZINC000788423111    0.2400
     19 C19       -10.1528   -0.3346   54.5195 C.2     1  ZINC000788423111   -0.1300
     20 C20       -10.1226   -1.5957   54.9929 C.2     1  ZINC000788423111   -0.0800
     21 C21       -11.0213   -1.8524   56.0080 C.2     1  ZINC000788423111   -0.1400
     22 C22       -11.7823   -0.8144   56.3660 C.2     1  ZINC000788423111   -0.2000
     23 S23       -11.3665    0.5907   55.3937 S.3     1  ZINC000788423111    0.1700
     24 N24        -8.4230   -0.4914   52.7175 N.2     1  ZINC000788423111   -0.2900
     25 H25        -6.6541    2.6866   49.0535 H       1  ZINC000788423111    0.3800
     26 H26        -4.1341    0.5664   50.5716 H       1  ZINC000788423111    0.0900
     27 H27        -4.9354    0.0772   49.0594 H       1  ZINC000788423111    0.0800
     28 H28        -2.1278    2.0319   47.6170 H       1  ZINC000788423111    0.1500
     29 H29         0.4618    3.6031   50.6241 H       1  ZINC000788423111    0.1500
     30 H30        -3.6621    2.9508   51.4980 H       1  ZINC000788423111    0.1500
     31 H31        -7.3099   -0.5615   50.0677 H       1  ZINC000788423111    0.1300
     32 H32        -6.1032   -0.6746   51.3714 H       1  ZINC000788423111    0.1300
     33 H33        -9.4486   -2.3465   54.6078 H       1  ZINC000788423111    0.1500
     34 H34       -11.1035   -2.8212   56.4782 H       1  ZINC000788423111    0.1500
     35 H35       -12.5361   -0.8340   57.1392 H       1  ZINC000788423111    0.1700
@<TRIPOS>BOND
     1     1     2    1
     2     1    25    1
     3     2     3    1
     4     2     4    1
     5     2    14    1
     6     4     5    1
     7     4    26    1
     8     4    27    1
     9     5     6    1
    10     6    13   ar
    11     6     7   ar
    12     7     8   ar
    13     7    28    1
    14     8     9    1
    15     8    10   ar
    16    10    11   ar
    17    10    29    1
    18    11    12    1
    19    11    13   ar
    20    13    30    1
    21    14    15    1
    22    14    31    1
    23    14    32    1
    24    15    24    1
    25    15    16    1
    26    16    17    2
    27    17    18    1
    28    18    19    1
    29    18    24    2
    30    19    23    1
    31    19    20    2
    32    20    21    1
    33    20    33    1
    34    21    22    2
    35    21    34    1
    36    22    23    1
    37    22    35    1
@<TRIPOS>SUBSTRUCTURE
     1 ZINC000788423111        1 TEMP              0 ****  ****    0 ROOT


##########                                Name:    ZINC000848949366
##########                DOCK_Rotatable_Bonds:                   8
##########                         Heavy_Atoms:                  25
##########                    Molecular_Weight:             368.773
##########                DOCK_Rotatable_Bonds:                   8
##########                       Formal_Charge:          0.00999947
##########                     HBond_Acceptors:                   9
##########                        HBond_Donors:                   3
##########                         Heavy_Atoms:                  25
##########                          Grid_Score:          -30.108477
##########                     Grid_vdw_energy:          -30.993847
##########                      Grid_es_energy:            0.885371
##########           Internal_energy_repulsive:            8.854373

@<TRIPOS>MOLECULE
ZINC000848949366
 42 43 1 0 0
SMALL
USER_CHARGES


@<TRIPOS>ATOM
      1 C1        -10.8528    4.7080   48.8332 C.3     1  ZINC000848949366   -0.1500
      2 C2         -9.6835    4.8660   49.8072 C.3     1  ZINC000848949366    0.0600
      3 O3         -8.6145    4.0041   49.4117 O.3     1  ZINC000848949366   -0.3500
      4 C4         -7.6727    3.7311   50.3389 C.2     1  ZINC000848949366    0.5400
      5 O5         -7.4978    4.4933   51.2712 O.2     1  ZINC000848949366   -0.4800
      6 C6         -6.8888    2.5590   50.2270 C.2     1  ZINC000848949366   -0.2300
      7 C7         -7.2105    1.4366   50.9056 C.2     1  ZINC000848949366    0.2000
      8 C8         -8.4254    1.4320   51.7973 C.3     1  ZINC000848949366    0.1000
      9 O9         -8.0220    1.1505   53.1635 O.3     1  ZINC000848949366   -0.3500
     10 C10        -8.9196    1.4151   54.1332 C.2     1  ZINC000848949366    0.5100
     11 O11        -9.9501    2.0002   53.8641 O.2     1  ZINC000848949366   -0.4800
     12 C12        -8.6515    0.9949   55.5198 C.ar    1  ZINC000848949366   -0.1600
     13 C13        -9.5047    0.0898   56.1571 C.ar    1  ZINC000848949366   -0.0300
     14 C14        -9.2489   -0.2993   57.4535 C.ar    1  ZINC000848949366   -0.1300
     15 C15        -8.1478    0.2034   58.1303 C.ar    1  ZINC000848949366    0.0200
     16 Cl16       -7.8376   -0.2950   59.7640 Cl      1  ZINC000848949366   -0.0500
     17 C17        -7.2957    1.0989   57.5114 C.ar    1  ZINC000848949366   -0.1500
     18 C18        -7.5353    1.4965   56.2054 C.ar    1  ZINC000848949366    0.1900
     19 O19        -6.7002    2.3751   55.5967 O.3     1  ZINC000848949366   -0.4700
     20 N20        -6.4532    0.3055   50.7964 N.am    1  ZINC000848949366   -0.6400
     21 C21        -5.3589    0.2157   50.0300 C.2     1  ZINC000848949366    0.7100
     22 O22        -4.7488   -0.8352   49.9971 O.2     1  ZINC000848949366   -0.5600
     23 N23        -4.9120    1.2523   49.2937 N.am    1  ZINC000848949366   -0.7100
     24 C24        -5.6632    2.5182   49.3371 C.3     1  ZINC000848949366    0.2000
     25 H25        -5.9698    2.7619   48.3198 H       1  ZINC000848949366    0.0900
     26 C26        -4.7102    3.6160   49.8138 C.3     1  ZINC000848949366   -0.1700
     27 H27       -11.6683    5.3655   49.1348 H       1  ZINC000848949366    0.0800
     28 H28       -10.5262    4.9720   47.8274 H       1  ZINC000848949366    0.0700
     29 H29       -11.1972    3.6738   48.8438 H       1  ZINC000848949366    0.0700
     30 H30        -9.3391    5.9002   49.7966 H       1  ZINC000848949366    0.0700
     31 H31       -10.0101    4.6020   50.8130 H       1  ZINC000848949366    0.0700
     32 H32        -8.9106    2.4072   51.7554 H       1  ZINC000848949366    0.1100
     33 H33        -9.1217    0.6649   51.4587 H       1  ZINC000848949366    0.1000
     34 H34       -10.3637   -0.3037   55.6340 H       1  ZINC000848949366    0.1500
     35 H35        -9.9088   -0.9986   57.9450 H       1  ZINC000848949366    0.1500
     36 H36        -6.4402    1.4863   58.0448 H       1  ZINC000848949366    0.1500
     37 H37        -6.8786    2.4992   54.6544 H       1  ZINC000848949366    0.4000
     38 H38        -6.7230   -0.4767   51.3026 H       1  ZINC000848949366    0.4300
     39 H39        -4.1164    1.1655   48.7456 H       1  ZINC000848949366    0.4400
     40 H40        -3.8738    3.6978   49.1197 H       1  ZINC000848949366    0.0700
     41 H41        -5.2425    4.5664   49.8550 H       1  ZINC000848949366    0.0700
     42 H42        -4.3356    3.3661   50.8065 H       1  ZINC000848949366    0.0700
@<TRIPOS>BOND
     1     1     2    1
     2     1    27    1
     3     1    28    1
     4     1    29    1
     5     2     3    1
     6     2    30    1
     7     2    31    1
     8     3     4    1
     9     4     5    2
    10     4     6    1
    11     6    24    1
    12     6     7    2
    13     7     8    1
    14     7    20    1
    15     8     9    1
    16     8    32    1
    17     8    33    1
    18     9    10    1
    19    10    11    2
    20    10    12    1
    21    12    18   ar
    22    12    13   ar
    23    13    14   ar
    24    13    34    1
    25    14    15   ar
    26    14    35    1
    27    15    16    1
    28    15    17   ar
    29    17    18   ar
    30    17    36    1
    31    18    19    1
    32    19    37    1
    33    20    21   am
    34    20    38    1
    35    21    22    2
    36    21    23   am
    37    23    24    1
    38    23    39    1
    39    24    25    1
    40    24    26    1
    41    26    40    1
    42    26    41    1
    43    26    42    1
@<TRIPOS>SUBSTRUCTURE
     1 ZINC000848949366        1 TEMP              0 ****  ****    0 ROOT


##########                                Name:    ZINC000517001504
##########                DOCK_Rotatable_Bonds:                   5
##########                         Heavy_Atoms:                  29
##########                    Molecular_Weight:             403.401
##########                DOCK_Rotatable_Bonds:                   5
##########                       Formal_Charge:          -0.0200002
##########                     HBond_Acceptors:                   7
##########                        HBond_Donors:                   0
##########                         Heavy_Atoms:                  29
##########                          Grid_Score:          -30.105135
##########                     Grid_vdw_energy:          -28.992281
##########                      Grid_es_energy:           -1.112854
##########           Internal_energy_repulsive:           32.180004

@<TRIPOS>MOLECULE
ZINC000517001504
 49 52 1 0 0
SMALL
USER_CHARGES


@<TRIPOS>ATOM
      1 O1         -5.9564    5.3764   51.3882 O.2     1  ZINC000517001504   -0.5200
      2 C2         -6.6146    4.4376   50.9926 C.2     1  ZINC000517001504    0.5400
      3 N3         -6.0634    3.5307   50.1616 N.am    1  ZINC000517001504   -0.6100
      4 C4         -6.8403    2.3803   49.6733 C.3     1  ZINC000517001504    0.0600
      5 C5         -6.0224    1.1068   49.9157 C.3     1  ZINC000517001504    0.0500
      6 O6         -4.7161    1.2730   49.3591 O.3     1  ZINC000517001504   -0.3700
      7 C7         -3.9553    2.3260   49.9561 C.3     1  ZINC000517001504    0.1200
      8 H8         -3.8664    2.1485   51.0278 H       1  ZINC000517001504    0.0800
      9 C9         -2.5819    2.3678   49.3372 C.ar    1  ZINC000517001504   -0.0600
     10 C10        -2.4184    2.0715   47.9969 C.ar    1  ZINC000517001504   -0.0900
     11 C11        -1.1586    2.1099   47.4292 C.ar    1  ZINC000517001504   -0.0700
     12 C12        -0.0623    2.4451   48.2017 C.ar    1  ZINC000517001504   -0.1800
     13 C13         1.3113    2.4865   47.5830 C.3     1  ZINC000517001504    0.5100
     14 F14         2.1003    3.4215   48.2615 F       1  ZINC000517001504   -0.1800
     15 F15         1.9027    1.2221   47.6757 F       1  ZINC000517001504   -0.1800
     16 F16         1.2056    2.8545   46.2374 F       1  ZINC000517001504   -0.1800
     17 C17        -0.2259    2.7427   49.5417 C.ar    1  ZINC000517001504   -0.0700
     18 C18        -1.4864    2.7081   50.1084 C.ar    1  ZINC000517001504   -0.1000
     19 C19        -4.6691    3.6652   49.7112 C.3     1  ZINC000517001504    0.0900
     20 C20        -8.0467    4.2818   51.4349 C.3     1  ZINC000517001504   -0.0600
     21 C21        -9.0241    4.3460   50.2897 C.ar    1  ZINC000517001504   -0.0700
     22 C22        -8.6050    4.7829   49.0470 C.ar    1  ZINC000517001504   -0.1200
     23 C23        -9.5016    4.8418   47.9965 C.ar    1  ZINC000517001504   -0.1100
     24 C24       -10.8172    4.4632   48.1886 C.ar    1  ZINC000517001504   -0.1100
     25 C25       -11.2359    4.0254   49.4311 C.ar    1  ZINC000517001504   -0.1100
     26 C26       -10.3384    3.9625   50.4804 C.ar    1  ZINC000517001504   -0.1000
     27 C27        -8.2751    3.0880   52.3780 C.3     1  ZINC000517001504   -0.1600
     28 C28        -7.9826    4.0432   53.5182 C.2     1  ZINC000517001504    0.3600
     29 O29        -7.5726    3.9408   54.6493 O.2     1  ZINC000517001504   -0.4100
     30 C30        -8.4274    5.1825   52.6227 C.3     1  ZINC000517001504   -0.1900
     31 H31        -7.7846    2.3188   50.2142 H       1  ZINC000517001504    0.1000
     32 H32        -7.0343    2.4946   48.6068 H       1  ZINC000517001504    0.0800
     33 H33        -5.9410    0.9248   50.9873 H       1  ZINC000517001504    0.0600
     34 H34        -6.5165    0.2604   49.4385 H       1  ZINC000517001504    0.1100
     35 H35        -3.2748    1.8097   47.3934 H       1  ZINC000517001504    0.1400
     36 H36        -1.0307    1.8777   46.3822 H       1  ZINC000517001504    0.1400
     37 H37         0.6305    3.0050   50.1451 H       1  ZINC000517001504    0.1400
     38 H38        -1.6141    2.9407   51.1554 H       1  ZINC000517001504    0.1400
     39 H39        -4.6424    3.9064   48.6486 H       1  ZINC000517001504    0.0800
     40 H40        -4.1756    4.4534   50.2796 H       1  ZINC000517001504    0.1100
     41 H41        -7.5772    5.0788   48.8970 H       1  ZINC000517001504    0.1300
     42 H42        -9.1744    5.1839   47.0258 H       1  ZINC000517001504    0.1300
     43 H43       -11.5178    4.5099   47.3681 H       1  ZINC000517001504    0.1300
     44 H44       -12.2639    3.7299   49.5813 H       1  ZINC000517001504    0.1300
     45 H45       -10.6656    3.6204   51.4512 H       1  ZINC000517001504    0.1200
     46 H46        -9.2992    2.7149   52.3715 H       1  ZINC000517001504    0.1300
     47 H47        -7.5337    2.2964   52.2692 H       1  ZINC000517001504    0.1100
     48 H48        -7.8084    6.0754   52.7107 H       1  ZINC000517001504    0.1000
     49 H49        -9.4942    5.3970   52.6848 H       1  ZINC000517001504    0.1400
@<TRIPOS>BOND
     1     1     2    2
     2     2     3   am
     3     2    20    1
     4     3    19    1
     5     3     4    1
     6     4     5    1
     7     4    31    1
     8     4    32    1
     9     5     6    1
    10     5    33    1
    11     5    34    1
    12     6     7    1
    13     7     8    1
    14     7     9    1
    15     7    19    1
    16     9    18   ar
    17     9    10   ar
    18    10    11   ar
    19    10    35    1
    20    11    12   ar
    21    11    36    1
    22    12    13    1
    23    12    17   ar
    24    13    14    1
    25    13    15    1
    26    13    16    1
    27    17    18   ar
    28    17    37    1
    29    18    38    1
    30    19    39    1
    31    19    40    1
    32    20    30    1
    33    20    21    1
    34    20    27    1
    35    21    26   ar
    36    21    22   ar
    37    22    23   ar
    38    22    41    1
    39    23    24   ar
    40    23    42    1
    41    24    25   ar
    42    24    43    1
    43    25    26   ar
    44    25    44    1
    45    26    45    1
    46    27    28    1
    47    27    46    1
    48    27    47    1
    49    28    29    2
    50    28    30    1
    51    30    48    1
    52    30    49    1
@<TRIPOS>SUBSTRUCTURE
     1 ZINC000517001504        1 TEMP              0 ****  ****    0 ROOT


##########                                Name:    ZINC001078110631
##########                DOCK_Rotatable_Bonds:                   7
##########                         Heavy_Atoms:                  25
##########                    Molecular_Weight:             353.369
##########                DOCK_Rotatable_Bonds:                   7
##########                       Formal_Charge:           0.0100006
##########                     HBond_Acceptors:                   8
##########                        HBond_Donors:                   2
##########                         Heavy_Atoms:                  25
##########                          Grid_Score:          -30.103584
##########                     Grid_vdw_energy:          -29.131651
##########                      Grid_es_energy:           -0.971933
##########           Internal_energy_repulsive:            7.739042

@<TRIPOS>MOLECULE
ZINC001078110631
 46 48 1 0 0
SMALL
USER_CHARGES


@<TRIPOS>ATOM
      1 O1         -4.3029    2.7988   48.8562 O.2     1  ZINC001078110631   -0.5100
      2 C2         -3.7303    2.6118   49.9124 C.2     1  ZINC001078110631    0.5600
      3 N3         -4.3919    2.0610   50.9493 N.am    1  ZINC001078110631   -0.7200
      4 C4         -5.8027    1.6930   50.8057 C.3     1  ZINC001078110631    0.1500
      5 H5         -6.2174    2.1322   49.8984 H       1  ZINC001078110631    0.1200
      6 C6         -6.6057    2.1550   52.0406 C.3     1  ZINC001078110631    0.0300
      7 N7         -7.5959    1.0715   52.2701 N.3     1  ZINC001078110631   -0.5000
      8 C8         -8.0937    1.0973   53.6519 C.3     1  ZINC001078110631    0.0300
      9 C9         -9.1201   -0.0208   53.8452 C.3     1  ZINC001078110631    0.1300
     10 N10        -9.5754   -0.0303   55.2376 N.am    1  ZINC001078110631   -0.6200
     11 C11        -9.6608    1.1621   56.0890 C.3     1  ZINC001078110631    0.1000
     12 C12       -10.5735    0.7613   57.2692 C.3     1  ZINC001078110631   -0.1300
     13 C13       -10.3809   -0.7724   57.3100 C.3     1  ZINC001078110631   -0.1600
     14 C14        -9.9739   -1.1313   55.8978 C.2     1  ZINC001078110631    0.5200
     15 O15        -9.9969   -2.2506   55.4314 O.2     1  ZINC001078110631   -0.5200
     16 C16        -6.8388   -0.1779   52.0002 C.3     1  ZINC001078110631    0.0000
     17 C17        -5.9557    0.1582   50.7764 C.3     1  ZINC001078110631    0.1000
     18 H18        -4.9812   -0.3210   50.8696 H       1  ZINC001078110631    0.0700
     19 O19        -6.5995   -0.2583   49.5704 O.3     1  ZINC001078110631   -0.5500
     20 C20        -2.3092    2.9826   50.0571 C.ar    1  ZINC001078110631   -0.1900
     21 C21        -1.8639    3.6132   51.2212 C.ar    1  ZINC001078110631   -0.0300
     22 C22        -0.5360    3.9572   51.3512 C.ar    1  ZINC001078110631   -0.1700
     23 C23         0.3598    3.6792   50.3292 C.ar    1  ZINC001078110631    0.1600
     24 F24         1.6603    4.0196   50.4637 F       1  ZINC001078110631   -0.1200
     25 C25        -0.0732    3.0537   49.1714 C.ar    1  ZINC001078110631   -0.2000
     26 C26        -1.4011    2.6988   49.0309 C.ar    1  ZINC001078110631    0.2000
     27 F27        -1.8234    2.0888   47.9019 F       1  ZINC001078110631   -0.1000
     28 H28        -3.9340    1.9081   51.7907 H       1  ZINC001078110631    0.4000
     29 H29        -5.9488    2.2588   52.9042 H       1  ZINC001078110631    0.0500
     30 H30        -7.1139    3.0966   51.8330 H       1  ZINC001078110631    0.1000
     31 H31        -7.2618    0.9499   54.3406 H       1  ZINC001078110631    0.0400
     32 H32        -8.5637    2.0603   53.8509 H       1  ZINC001078110631    0.0800
     33 H33        -9.9712    0.1492   53.1858 H       1  ZINC001078110631    0.0900
     34 H34        -8.6614   -0.9803   53.6063 H       1  ZINC001078110631    0.0800
     35 H35        -8.6712    1.4367   56.4539 H       1  ZINC001078110631    0.0700
     36 H36       -10.1026    1.9903   55.5349 H       1  ZINC001078110631    0.0800
     37 H37       -10.2355    1.2217   58.1975 H       1  ZINC001078110631    0.0900
     38 H38       -11.6126    1.0186   57.0635 H       1  ZINC001078110631    0.0800
     39 H39        -9.5955   -1.0396   58.0170 H       1  ZINC001078110631    0.1100
     40 H40       -11.3160   -1.2676   57.5719 H       1  ZINC001078110631    0.1000
     41 H41        -6.2184   -0.4392   52.8574 H       1  ZINC001078110631    0.0600
     42 H42        -7.5225   -0.9928   51.7621 H       1  ZINC001078110631    0.0900
     43 H43        -6.7805   -1.2072   49.5287 H       1  ZINC001078110631    0.3800
     44 H44        -2.5594    3.8309   52.0182 H       1  ZINC001078110631    0.1500
     45 H45        -0.1918    4.4450   52.2511 H       1  ZINC001078110631    0.1500
     46 H46         0.6288    2.8399   48.3791 H       1  ZINC001078110631    0.1600
@<TRIPOS>BOND
     1     1     2    2
     2     2     3   am
     3     2    20    1
     4     3     4    1
     5     3    28    1
     6     4     5    1
     7     4    17    1
     8     4     6    1
     9     6     7    1
    10     6    29    1
    11     6    30    1
    12     7     8    1
    13     7    16    1
    14     8     9    1
    15     8    31    1
    16     8    32    1
    17     9    10    1
    18     9    33    1
    19     9    34    1
    20    10    14   am
    21    10    11    1
    22    11    12    1
    23    11    35    1
    24    11    36    1
    25    12    13    1
    26    12    37    1
    27    12    38    1
    28    13    14    1
    29    13    39    1
    30    13    40    1
    31    14    15    2
    32    16    17    1
    33    16    41    1
    34    16    42    1
    35    17    18    1
    36    17    19    1
    37    19    43    1
    38    20    26   ar
    39    20    21   ar
    40    21    22   ar
    41    21    44    1
    42    22    23   ar
    43    22    45    1
    44    23    24    1
    45    23    25   ar
    46    25    26   ar
    47    25    46    1
    48    26    27    1
@<TRIPOS>SUBSTRUCTURE
     1 ZINC001078110631        1 TEMP              0 ****  ****    0 ROOT


##########                                Name:    ZINC000611836474
##########                DOCK_Rotatable_Bonds:                   7
##########                         Heavy_Atoms:                  22
##########                    Molecular_Weight:             366.258
##########                DOCK_Rotatable_Bonds:                   7
##########                       Formal_Charge:          -0.0300004
##########                     HBond_Acceptors:                   5
##########                        HBond_Donors:                   1
##########                         Heavy_Atoms:                  22
##########                          Grid_Score:          -30.101009
##########                     Grid_vdw_energy:          -29.463875
##########                      Grid_es_energy:           -0.637135
##########           Internal_energy_repulsive:            7.964156

@<TRIPOS>MOLECULE
ZINC000611836474
 42 43 1 0 0
SMALL
USER_CHARGES


@<TRIPOS>ATOM
      1 C1          0.6985    4.2897   51.9760 C.3     1  ZINC000611836474   -0.1500
      2 C2          0.4044    3.7319   50.5819 C.3     1  ZINC000611836474   -0.1400
      3 C3         -1.0894    3.4243   50.4604 C.3     1  ZINC000611836474    0.1300
      4 N4         -1.3715    2.8933   49.1245 N.pl3   1  ZINC000611836474   -0.3900
      5 N5         -0.4235    2.6103   48.1329 N.2     1  ZINC000611836474   -0.2900
      6 C6         -1.0517    2.1524   47.0804 C.2     1  ZINC000611836474    0.0600
      7 C7         -2.4203    2.1269   47.3621 C.2     1  ZINC000611836474   -0.2800
      8 C8         -2.5928    2.5841   48.6325 C.2     1  ZINC000611836474    0.3000
      9 N9         -3.8089    2.7173   49.3023 N.am    1  ZINC000611836474   -0.6500
     10 C10        -4.5984    1.6405   49.4863 C.2     1  ZINC000611836474    0.5200
     11 O11        -4.2507    0.5554   49.0707 O.2     1  ZINC000611836474   -0.4700
     12 C12        -5.9132    1.7848   50.2085 C.3     1  ZINC000611836474    0.0700
     13 H13        -6.6662    1.1670   49.7192 H       1  ZINC000611836474    0.1100
     14 C14        -6.3552    3.2491   50.1756 C.3     1  ZINC000611836474   -0.1800
     15 O15        -5.7600    1.3639   51.5654 O.3     1  ZINC000611836474   -0.2700
     16 C16        -6.8906    1.0169   52.2353 C.ar    1  ZINC000611836474    0.1500
     17 C17        -7.6461   -0.0651   51.8092 C.ar    1  ZINC000611836474   -0.2000
     18 C18        -8.7953   -0.4159   52.4917 C.ar    1  ZINC000611836474   -0.0600
     19 C19        -9.1927    0.3109   53.5984 C.ar    1  ZINC000611836474   -0.1100
     20 C20       -10.4467   -0.0739   54.3404 C.3     1  ZINC000611836474   -0.1100
     21 C21        -8.4414    1.3901   54.0263 C.ar    1  ZINC000611836474   -0.0500
     22 C22        -7.2881    1.7417   53.3507 C.ar    1  ZINC000611836474   -0.1200
     23 Br23       -6.2609    3.2176   53.9359 Br      1  ZINC000611836474   -0.0300
     24 H24         1.7627    4.5087   52.0626 H       1  ZINC000611836474    0.0600
     25 H25         0.1256    5.2042   52.1297 H       1  ZINC000611836474    0.0600
     26 H26         0.4167    3.5534   52.7288 H       1  ZINC000611836474    0.0600
     27 H27         0.6863    4.4681   49.8292 H       1  ZINC000611836474    0.0800
     28 H28         0.9773    2.8175   50.4282 H       1  ZINC000611836474    0.0600
     29 H29        -1.3708    2.6864   51.2116 H       1  ZINC000611836474    0.0800
     30 H30        -1.6624    4.3384   50.6165 H       1  ZINC000611836474    0.1000
     31 H31        -0.5913    1.8470   46.1524 H       1  ZINC000611836474    0.1900
     32 H32        -3.2016    1.7993   46.6923 H       1  ZINC000611836474    0.1700
     33 H33        -4.0865    3.5849   49.6358 H       1  ZINC000611836474    0.4100
     34 H34        -6.4721    3.5702   49.1406 H       1  ZINC000611836474    0.0800
     35 H35        -7.3062    3.3534   50.6980 H       1  ZINC000611836474    0.0800
     36 H36        -5.6022    3.8670   50.6649 H       1  ZINC000611836474    0.0800
     37 H37        -7.3367   -0.6330   50.9441 H       1  ZINC000611836474    0.1400
     38 H38        -9.3838   -1.2585   52.1600 H       1  ZINC000611836474    0.1300
     39 H39       -10.1997   -0.7889   55.1251 H       1  ZINC000611836474    0.0700
     40 H40       -10.8925    0.8153   54.7861 H       1  ZINC000611836474    0.0700
     41 H41       -11.1550   -0.5264   53.6464 H       1  ZINC000611836474    0.0700
     42 H42        -8.7540    1.9564   54.8912 H       1  ZINC000611836474    0.1400
@<TRIPOS>BOND
     1     1     2    1
     2     1    24    1
     3     1    25    1
     4     1    26    1
     5     2     3    1
     6     2    27    1
     7     2    28    1
     8     3     4    1
     9     3    29    1
    10     3    30    1
    11     4     8    1
    12     4     5    1
    13     5     6    2
    14     6     7    1
    15     6    31    1
    16     7     8    2
    17     7    32    1
    18     8     9    1
    19     9    10   am
    20     9    33    1
    21    10    11    2
    22    10    12    1
    23    12    13    1
    24    12    14    1
    25    12    15    1
    26    14    34    1
    27    14    35    1
    28    14    36    1
    29    15    16    1
    30    16    22   ar
    31    16    17   ar
    32    17    18   ar
    33    17    37    1
    34    18    19   ar
    35    18    38    1
    36    19    20    1
    37    19    21   ar
    38    20    39    1
    39    20    40    1
    40    20    41    1
    41    21    22   ar
    42    21    42    1
    43    22    23    1
@<TRIPOS>SUBSTRUCTURE
     1 ZINC000611836474        1 TEMP              0 ****  ****    0 ROOT


##########                                Name:    ZINC000192150625
##########                DOCK_Rotatable_Bonds:                   5
##########                         Heavy_Atoms:                  28
##########                    Molecular_Weight:             377.443
##########                DOCK_Rotatable_Bonds:                   5
##########                       Formal_Charge:           0.0199997
##########                     HBond_Acceptors:                   6
##########                        HBond_Donors:                   1
##########                         Heavy_Atoms:                  28
##########                          Grid_Score:          -30.055706
##########                     Grid_vdw_energy:          -29.070534
##########                      Grid_es_energy:           -0.985172
##########           Internal_energy_repulsive:           10.062490

@<TRIPOS>MOLECULE
ZINC000192150625
 51 54 1 0 0
SMALL
USER_CHARGES


@<TRIPOS>ATOM
      1 C1         -9.5025    0.5161   59.4796 C.3     1  ZINC000192150625   -0.0800
      2 C2         -9.2653    0.4987   57.9914 C.2     1  ZINC000192150625    0.0400
      3 C3         -8.4839    1.3624   57.3293 C.2     1  ZINC000192150625   -0.1800
      4 C4         -7.6972    2.5053   57.9174 C.3     1  ZINC000192150625   -0.0800
      5 C5         -8.5478    0.9715   55.9157 C.ar    1  ZINC000192150625   -0.1000
      6 C6         -7.9719    1.4595   54.7445 C.ar    1  ZINC000192150625   -0.0700
      7 C7         -8.2486    0.8396   53.5381 C.ar    1  ZINC000192150625    0.1200
      8 N8         -7.6748    1.3222   52.3572 N.am    1  ZINC000192150625   -0.6400
      9 C9         -6.5241    0.7895   51.9004 C.2     1  ZINC000192150625    0.5100
     10 O10        -5.9858   -0.1091   52.5137 O.2     1  ZINC000192150625   -0.4900
     11 C11        -5.9115    1.3048   50.6396 C.2     1  ZINC000192150625    0.5100
     12 O12        -6.1389    0.7510   49.5840 O.2     1  ZINC000192150625   -0.5200
     13 N13        -5.1061    2.3849   50.6742 N.am    1  ZINC000192150625   -0.5800
     14 C14        -4.8165    3.0624   51.9454 C.3     1  ZINC000192150625    0.0500
     15 C15        -3.2974    3.1616   52.1164 C.3     1  ZINC000192150625   -0.1200
     16 C16        -2.6933    3.8455   50.8877 C.3     1  ZINC000192150625   -0.0500
     17 C17        -1.2027    3.9754   51.0676 C.ar    1  ZINC000192150625   -0.0300
     18 C18        -0.5636    5.1852   50.8436 C.ar    1  ZINC000192150625   -0.1700
     19 C19         0.8050    5.2665   51.0187 C.ar    1  ZINC000192150625    0.1000
     20 N20         1.5009    4.2109   51.3934 N.ar    1  ZINC000192150625   -0.4900
     21 C21         0.9265    3.0447   51.6153 C.ar    1  ZINC000192150625    0.1000
     22 C22        -0.4386    2.8894   51.4665 C.ar    1  ZINC000192150625   -0.1700
     23 C23        -2.9853    3.0081   49.6406 C.3     1  ZINC000192150625   -0.1200
     24 C24        -4.4960    2.9035   49.4423 C.3     1  ZINC000192150625    0.1100
     25 C25        -9.0976   -0.2647   53.4982 C.ar    1  ZINC000192150625   -0.1100
     26 C26        -9.6699   -0.7518   54.6525 C.ar    1  ZINC000192150625   -0.0800
     27 C27        -9.4035   -0.1423   55.8722 C.ar    1  ZINC000192150625    0.0500
     28 O28        -9.8026   -0.3894   57.1371 O.3     1  ZINC000192150625   -0.1900
     29 H29       -10.1738   -0.2990   59.7501 H       1  ZINC000192150625    0.0800
     30 H30        -8.5530    0.3929   60.0003 H       1  ZINC000192150625    0.0900
     31 H31        -9.9525    1.4671   59.7647 H       1  ZINC000192150625    0.0900
     32 H32        -6.7026    2.1566   58.1955 H       1  ZINC000192150625    0.0700
     33 H33        -7.6095    3.3034   57.1802 H       1  ZINC000192150625    0.0700
     34 H34        -8.2105    2.8826   58.8019 H       1  ZINC000192150625    0.0700
     35 H35        -7.3144    2.3158   54.7777 H       1  ZINC000192150625    0.1400
     36 H36        -8.1050    2.0403   51.8671 H       1  ZINC000192150625    0.4300
     37 H37        -5.2489    4.0629   51.9330 H       1  ZINC000192150625    0.0700
     38 H38        -5.2404    2.4891   52.7699 H       1  ZINC000192150625    0.1600
     39 H39        -3.0690    3.7464   53.0074 H       1  ZINC000192150625    0.0800
     40 H40        -2.8768    2.1613   52.2195 H       1  ZINC000192150625    0.0700
     41 H41        -3.1327    4.8361   50.7708 H       1  ZINC000192150625    0.0900
     42 H42        -1.1280    6.0531   50.5359 H       1  ZINC000192150625    0.1300
     43 H43         1.3103    6.2052   50.8463 H       1  ZINC000192150625    0.1600
     44 H44         1.5294    2.2024   51.9207 H       1  ZINC000192150625    0.1600
     45 H45        -0.9033    1.9318   51.6500 H       1  ZINC000192150625    0.1300
     46 H46        -2.5349    3.4837   48.7693 H       1  ZINC000192150625    0.0800
     47 H47        -2.5676    2.0093   49.7670 H       1  ZINC000192150625    0.0700
     48 H48        -4.7100    2.2276   48.6144 H       1  ZINC000192150625    0.1000
     49 H49        -4.9054    3.8903   49.2262 H       1  ZINC000192150625    0.0800
     50 H50        -9.3092   -0.7428   52.5531 H       1  ZINC000192150625    0.1400
     51 H51       -10.3264   -1.6083   54.6095 H       1  ZINC000192150625    0.1400
@<TRIPOS>BOND
     1     1     2    1
     2     1    29    1
     3     1    30    1
     4     1    31    1
     5     2    28    1
     6     2     3    2
     7     3     4    1
     8     3     5    1
     9     4    32    1
    10     4    33    1
    11     4    34    1
    12     5    27   ar
    13     5     6   ar
    14     6     7   ar
    15     6    35    1
    16     7     8    1
    17     7    25   ar
    18     8     9   am
    19     8    36    1
    20     9    10    2
    21     9    11    1
    22    11    12    2
    23    11    13   am
    24    13    24    1
    25    13    14    1
    26    14    15    1
    27    14    37    1
    28    14    38    1
    29    15    16    1
    30    15    39    1
    31    15    40    1
    32    16    17    1
    33    16    23    1
    34    16    41    1
    35    17    22   ar
    36    17    18   ar
    37    18    19   ar
    38    18    42    1
    39    19    20   ar
    40    19    43    1
    41    20    21   ar
    42    21    22   ar
    43    21    44    1
    44    22    45    1
    45    23    24    1
    46    23    46    1
    47    23    47    1
    48    24    48    1
    49    24    49    1
    50    25    26   ar
    51    25    50    1
    52    26    27   ar
    53    26    51    1
    54    27    28    1
@<TRIPOS>SUBSTRUCTURE
     1 ZINC000192150625        1 TEMP              0 ****  ****    0 ROOT


##########                                Name:    ZINC000269287897
##########                DOCK_Rotatable_Bonds:                   8
##########                         Heavy_Atoms:                  23
##########                    Molecular_Weight:             385.301
##########                DOCK_Rotatable_Bonds:                   8
##########                       Formal_Charge:           0.0300002
##########                     HBond_Acceptors:                   5
##########                        HBond_Donors:                   1
##########                         Heavy_Atoms:                  23
##########                          Grid_Score:          -30.021151
##########                     Grid_vdw_energy:          -29.254431
##########                      Grid_es_energy:           -0.766721
##########           Internal_energy_repulsive:            9.876991

@<TRIPOS>MOLECULE
ZINC000269287897
 48 49 1 0 0
SMALL
USER_CHARGES


@<TRIPOS>ATOM
      1 C1          2.4163   -0.5774   50.2684 C.3     1  ZINC000269287897    0.0300
      2 O2          2.3916    0.8036   50.6347 O.3     1  ZINC000269287897   -0.3800
      3 C3          1.1924    1.4834   50.2585 C.3     1  ZINC000269287897    0.0600
      4 C4          1.2565    2.9345   50.7392 C.3     1  ZINC000269287897    0.0600
      5 O5          0.0426    3.6048   50.3940 O.3     1  ZINC000269287897   -0.3800
      6 C6         -1.0841    3.2075   51.1779 C.3     1  ZINC000269287897    0.0700
      7 C7         -2.3642    3.3891   50.3599 C.3     1  ZINC000269287897   -0.1000
      8 H8         -2.5566    4.4447   50.1686 H       1  ZINC000269287897    0.1000
      9 C9         -2.2950    2.5870   49.0335 C.3     1  ZINC000269287897   -0.1200
     10 C10        -3.7808    2.3170   48.7150 C.3     1  ZINC000269287897    0.1000
     11 N11        -4.5246    2.4250   49.9785 N.am    1  ZINC000269287897   -0.6300
     12 C12        -5.8565    2.2758   50.1211 C.2     1  ZINC000269287897    0.7300
     13 O13        -6.5478    2.0287   49.1518 O.2     1  ZINC000269287897   -0.5600
     14 N14        -6.4221    2.4006   51.3380 N.am    1  ZINC000269287897   -0.6900
     15 C15        -7.8054    2.2456   51.4861 C.ar    1  ZINC000269287897    0.1800
     16 C16        -8.6553    3.3159   51.2432 C.ar    1  ZINC000269287897   -0.0600
     17 C17        -8.0897    4.6470   50.8195 C.3     1  ZINC000269287897   -0.1000
     18 C18       -10.0202    3.1598   51.3897 C.ar    1  ZINC000269287897   -0.0900
     19 C19       -10.5403    1.9391   51.7779 C.ar    1  ZINC000269287897   -0.0800
     20 C20       -12.0297    1.7728   51.9366 C.3     1  ZINC000269287897   -0.1100
     21 C21        -9.6969    0.8701   52.0204 C.ar    1  ZINC000269287897   -0.0900
     22 C22        -8.3314    1.0182   51.8711 C.ar    1  ZINC000269287897   -0.1000
     23 Br23       -7.1787   -0.4438   52.2023 Br      1  ZINC000269287897   -0.0500
     24 C24        -3.5724    2.7232   51.0644 C.3     1  ZINC000269287897    0.1400
     25 H25         1.5878   -1.0961   50.7506 H       1  ZINC000269287897    0.0400
     26 H26         2.3212   -0.6680   49.1863 H       1  ZINC000269287897    0.0400
     27 H27         3.3588   -1.0215   50.5888 H       1  ZINC000269287897    0.0900
     28 H28         1.0891    1.4644   49.1736 H       1  ZINC000269287897    0.0600
     29 H29         0.3354    0.9873   50.7139 H       1  ZINC000269287897    0.0600
     30 H30         1.3869    2.9534   51.8213 H       1  ZINC000269287897    0.0700
     31 H31         2.0977    3.4382   50.2631 H       1  ZINC000269287897    0.0600
     32 H32        -0.9789    2.1599   51.4604 H       1  ZINC000269287897    0.0600
     33 H33        -1.1367    3.8226   52.0763 H       1  ZINC000269287897    0.0500
     34 H34        -1.8339    3.1831   48.2460 H       1  ZINC000269287897    0.0900
     35 H35        -1.7550    1.6510   49.1765 H       1  ZINC000269287897    0.0800
     36 H36        -4.1480    3.0573   48.0042 H       1  ZINC000269287897    0.0700
     37 H37        -3.8951    1.3148   48.3020 H       1  ZINC000269287897    0.0700
     38 H38        -5.8706    2.5978   52.1113 H       1  ZINC000269287897    0.4100
     39 H39        -8.1570    4.7420   49.7357 H       1  ZINC000269287897    0.0900
     40 H40        -8.6572    5.4494   51.2905 H       1  ZINC000269287897    0.0600
     41 H41        -7.0456    4.7120   51.1257 H       1  ZINC000269287897    0.0600
     42 H42       -10.6816    3.9924   51.2011 H       1  ZINC000269287897    0.1300
     43 H43       -12.4623    1.4505   50.9895 H       1  ZINC000269287897    0.0700
     44 H44       -12.2321    1.0235   52.7020 H       1  ZINC000269287897    0.0700
     45 H45       -12.4719    2.7238   52.2333 H       1  ZINC000269287897    0.0700
     46 H46       -10.1064   -0.0822   52.3236 H       1  ZINC000269287897    0.1400
     47 H47        -3.2620    1.8033   51.5600 H       1  ZINC000269287897    0.0700
     48 H48        -4.0196    3.4099   51.7831 H       1  ZINC000269287897    0.0900
@<TRIPOS>BOND
     1     1     2    1
     2     1    25    1
     3     1    26    1
     4     1    27    1
     5     2     3    1
     6     3     4    1
     7     3    28    1
     8     3    29    1
     9     4     5    1
    10     4    30    1
    11     4    31    1
    12     5     6    1
    13     6     7    1
    14     6    32    1
    15     6    33    1
    16     7     8    1
    17     7    24    1
    18     7     9    1
    19     9    10    1
    20     9    34    1
    21     9    35    1
    22    10    11    1
    23    10    36    1
    24    10    37    1
    25    11    12   am
    26    11    24    1
    27    12    13    2
    28    12    14   am
    29    14    15    1
    30    14    38    1
    31    15    22   ar
    32    15    16   ar
    33    16    17    1
    34    16    18   ar
    35    17    39    1
    36    17    40    1
    37    17    41    1
    38    18    19   ar
    39    18    42    1
    40    19    20    1
    41    19    21   ar
    42    20    43    1
    43    20    44    1
    44    20    45    1
    45    21    22   ar
    46    21    46    1
    47    22    23    1
    48    24    47    1
    49    24    48    1
@<TRIPOS>SUBSTRUCTURE
     1 ZINC000269287897        1 TEMP              0 ****  ****    0 ROOT


##########                                Name:    ZINC000032503012
##########                DOCK_Rotatable_Bonds:                   8
##########                         Heavy_Atoms:                  27
##########                    Molecular_Weight:             390.503
##########                DOCK_Rotatable_Bonds:                   8
##########                       Formal_Charge:           0.0099995
##########                     HBond_Acceptors:                   7
##########                        HBond_Donors:                   2
##########                         Heavy_Atoms:                  27
##########                          Grid_Score:          -30.018848
##########                     Grid_vdw_energy:          -29.393465
##########                      Grid_es_energy:           -0.625384
##########           Internal_energy_repulsive:           45.104183

@<TRIPOS>MOLECULE
ZINC000032503012
 53 54 1 0 0
SMALL
USER_CHARGES


@<TRIPOS>ATOM
      1 C1         -8.2622    1.6335   56.1224 C.3     1  ZINC000032503012   -0.1200
      2 C2         -8.2397    1.2786   54.6579 C.ar    1  ZINC000032503012   -0.0500
      3 C3         -9.3709    0.7605   54.0555 C.ar    1  ZINC000032503012   -0.1600
      4 C4         -9.3535    0.4336   52.7119 C.ar    1  ZINC000032503012   -0.0700
      5 C5         -8.2051    0.6242   51.9684 C.ar    1  ZINC000032503012   -0.1500
      6 C6         -7.0684    1.1440   52.5708 C.ar    1  ZINC000032503012    0.1300
      7 O7         -5.9373    1.3329   51.8413 O.3     1  ZINC000032503012   -0.2800
      8 C8         -6.0477    1.1882   50.4241 C.3     1  ZINC000032503012    0.0700
      9 H9         -6.5771    0.2637   50.1932 H       1  ZINC000032503012    0.1100
     10 C10        -6.8215    2.3762   49.8488 C.3     1  ZINC000032503012   -0.1800
     11 C11        -4.6701    1.1437   49.8149 C.2     1  ZINC000032503012    0.5200
     12 O12        -4.1800    0.0797   49.5007 O.2     1  ZINC000032503012   -0.4900
     13 N13        -3.9825    2.2863   49.6192 N.am    1  ZINC000032503012   -0.6700
     14 C14        -2.7033    2.2451   49.0536 C.ar    1  ZINC000032503012    0.1300
     15 C15        -2.5544    2.1535   47.6761 C.ar    1  ZINC000032503012   -0.0600
     16 C16        -1.2903    2.1129   47.1208 C.ar    1  ZINC000032503012   -0.1200
     17 C17        -0.1740    2.1629   47.9349 C.ar    1  ZINC000032503012   -0.0300
     18 C18        -0.3189    2.2538   49.3073 C.ar    1  ZINC000032503012   -0.6600
     19 S19         1.1069    2.3172   50.3406 S.o2    1  ZINC000032503012    2.7000
     20 O20         1.1107    1.1121   51.0937 O.2     1  ZINC000032503012   -0.9600
     21 O21         2.1875    2.7175   49.5092 O.2     1  ZINC000032503012   -0.9500
     22 N22         0.8717    3.5459   51.4256 N.am    1  ZINC000032503012   -1.1100
     23 C23         0.6757    4.9171   50.9484 C.3     1  ZINC000032503012    0.1700
     24 C24        -0.7856    5.1105   50.5387 C.3     1  ZINC000032503012   -0.1900
     25 C25         1.0266    5.9012   52.0661 C.3     1  ZINC000032503012   -0.1500
     26 C26         1.5816    5.1715   49.7419 C.3     1  ZINC000032503012   -0.1800
     27 C27        -1.5799    2.3014   49.8684 C.ar    1  ZINC000032503012   -0.0400
     28 C28        -7.0902    1.4763   53.9173 C.ar    1  ZINC000032503012   -0.2100
     29 H29        -8.5824    2.6687   56.2404 H       1  ZINC000032503012    0.0700
     30 H30        -8.9573    0.9763   56.6449 H       1  ZINC000032503012    0.0700
     31 H31        -7.2631    1.5124   56.5409 H       1  ZINC000032503012    0.0700
     32 H32       -10.2697    0.6103   54.6351 H       1  ZINC000032503012    0.1300
     33 H33       -10.2384    0.0287   52.2435 H       1  ZINC000032503012    0.1300
     34 H34        -8.1919    0.3685   50.9192 H       1  ZINC000032503012    0.1300
     35 H35        -7.8180    2.4083   50.2894 H       1  ZINC000032503012    0.0800
     36 H36        -6.2922    3.3006   50.0797 H       1  ZINC000032503012    0.0800
     37 H37        -6.9057    2.2658   48.7678 H       1  ZINC000032503012    0.0800
     38 H38        -4.3744    3.1374   49.8705 H       1  ZINC000032503012    0.4100
     39 H39        -3.4260    2.1136   47.0396 H       1  ZINC000032503012    0.1400
     40 H40        -1.1738    2.0417   46.0494 H       1  ZINC000032503012    0.1400
     41 H41         0.8133    2.1308   47.4983 H       1  ZINC000032503012    0.1500
     42 H42         0.8636    3.3578   52.3772 H       1  ZINC000032503012    0.4200
     43 H43        -1.4369    4.7595   51.3392 H       1  ZINC000032503012    0.0700
     44 H44        -0.9743    6.1681   50.3542 H       1  ZINC000032503012    0.0800
     45 H45        -0.9868    4.5417   49.6309 H       1  ZINC000032503012    0.0700
     46 H46         2.0677    5.7634   52.3580 H       1  ZINC000032503012    0.0700
     47 H47         0.8808    6.9213   51.7110 H       1  ZINC000032503012    0.0700
     48 H48         0.3812    5.7199   52.9256 H       1  ZINC000032503012    0.0600
     49 H49         1.2078    4.6141   48.8829 H       1  ZINC000032503012    0.0900
     50 H50         1.5868    6.2364   49.5096 H       1  ZINC000032503012    0.0700
     51 H51         2.5954    4.8451   49.9736 H       1  ZINC000032503012    0.0600
     52 H52        -1.6925    2.3722   50.9401 H       1  ZINC000032503012    0.1400
     53 H53        -6.2066    1.8811   54.3885 H       1  ZINC000032503012    0.1300
@<TRIPOS>BOND
     1     1     2    1
     2     1    29    1
     3     1    30    1
     4     1    31    1
     5     2    28   ar
     6     2     3   ar
     7     3     4   ar
     8     3    32    1
     9     4     5   ar
    10     4    33    1
    11     5     6   ar
    12     5    34    1
    13     6     7    1
    14     6    28   ar
    15     7     8    1
    16     8     9    1
    17     8    10    1
    18     8    11    1
    19    10    35    1
    20    10    36    1
    21    10    37    1
    22    11    12    2
    23    11    13   am
    24    13    14    1
    25    13    38    1
    26    14    27   ar
    27    14    15   ar
    28    15    16   ar
    29    15    39    1
    30    16    17   ar
    31    16    40    1
    32    17    18   ar
    33    17    41    1
    34    18    19    1
    35    18    27   ar
    36    19    20    2
    37    19    21    2
    38    19    22   am
    39    22    23    1
    40    22    42    1
    41    23    24    1
    42    23    25    1
    43    23    26    1
    44    24    43    1
    45    24    44    1
    46    24    45    1
    47    25    46    1
    48    25    47    1
    49    25    48    1
    50    26    49    1
    51    26    50    1
    52    26    51    1
    53    27    52    1
    54    28    53    1
@<TRIPOS>SUBSTRUCTURE
     1 ZINC000032503012        1 TEMP              0 ****  ****    0 ROOT


##########                                Name:    ZINC000883773972
##########                DOCK_Rotatable_Bonds:                   4
##########                         Heavy_Atoms:                  23
##########                    Molecular_Weight:             343.447
##########                DOCK_Rotatable_Bonds:                   4
##########                       Formal_Charge:                0.01
##########                     HBond_Acceptors:                   8
##########                        HBond_Donors:                   1
##########                         Heavy_Atoms:                  23
##########                          Grid_Score:          -30.008690
##########                     Grid_vdw_energy:          -30.186188
##########                      Grid_es_energy:            0.177498
##########           Internal_energy_repulsive:            4.929243

@<TRIPOS>MOLECULE
ZINC000883773972
 48 50 1 0 0
SMALL
USER_CHARGES


@<TRIPOS>ATOM
      1 C1        -14.1469   -3.4461   57.6605 C.3     1  ZINC000883773972   -0.1700
      2 C2        -13.3425   -2.3032   58.2244 C.2     1  ZINC000883773972    0.5300
      3 O3        -13.5822   -1.8837   59.3368 O.2     1  ZINC000883773972   -0.5400
      4 N4        -12.3567   -1.7473   57.4924 N.am    1  ZINC000883773972   -0.6200
      5 C5        -11.4809   -0.6351   57.8965 C.3     1  ZINC000883773972    0.1100
      6 C6        -10.1314   -0.8699   57.1977 C.3     1  ZINC000883773972   -0.1100
      7 H7         -9.3828   -1.2663   57.8836 H       1  ZINC000883773972    0.1000
      8 C8         -9.6660    0.4379   56.5357 C.3     1  ZINC000883773972    0.1300
      9 N9         -9.2767    0.0906   55.1592 N.am    1  ZINC000883773972   -0.6400
     10 C10        -8.3198    0.6844   54.4186 C.2     1  ZINC000883773972    0.7300
     11 O11        -7.6794    1.6088   54.8809 O.2     1  ZINC000883773972   -0.5800
     12 N12        -8.0730    0.2535   53.1656 N.am    1  ZINC000883773972   -0.7400
     13 C13        -7.0342    0.9001   52.3601 C.3     1  ZINC000883773972    0.1800
     14 H14        -6.3144    1.3850   53.0196 H       1  ZINC000883773972    0.1100
     15 C15        -6.3196   -0.1516   51.5164 C.3     1  ZINC000883773972   -0.1500
     16 C16        -5.0765    0.4404   50.8586 C.3     1  ZINC000883773972   -0.1000
     17 C17        -5.4844    1.4365   49.7707 C.3     1  ZINC000883773972   -0.5600
     18 H18        -6.1368    0.9430   49.0504 H       1  ZINC000883773972    0.1400
     19 C19        -4.2346    1.9562   49.0576 C.3     1  ZINC000883773972   -0.1400
     20 S20        -6.3689    2.8239   50.5410 S.o2    1  ZINC000883773972    2.4200
     21 O21        -5.5034    3.4513   51.4773 O.2     1  ZINC000883773972   -0.9200
     22 O22        -6.9692    3.6052   49.5170 O.2     1  ZINC000883773972   -0.9300
     23 C23        -7.6765    1.9495   51.4501 C.3     1  ZINC000883773972   -0.6300
     24 C24       -10.1366   -1.0318   54.7494 C.3     1  ZINC000883773972    0.1100
     25 C25       -10.4356   -1.8535   56.0410 C.3     1  ZINC000883773972   -0.1100
     26 H26        -9.8406   -2.7654   56.0886 H       1  ZINC000883773972    0.1000
     27 C27       -11.9411   -2.1380   56.1354 C.3     1  ZINC000883773972    0.1100
     28 H28       -14.8920   -3.7611   58.3910 H       1  ZINC000883773972    0.0900
     29 H29       -14.6471   -3.1227   56.7476 H       1  ZINC000883773972    0.0900
     30 H30       -13.4833   -4.2810   57.4351 H       1  ZINC000883773972    0.0900
     31 H31       -11.9089    0.3142   57.5743 H       1  ZINC000883773972    0.0800
     32 H32       -11.3475   -0.6379   58.9784 H       1  ZINC000883773972    0.0900
     33 H33       -10.4812    1.1613   56.5229 H       1  ZINC000883773972    0.0700
     34 H34        -8.8111    0.8464   57.0746 H       1  ZINC000883773972    0.0900
     35 H35        -8.5831   -0.4847   52.7973 H       1  ZINC000883773972    0.4000
     36 H36        -6.0259   -0.9851   52.1545 H       1  ZINC000883773972    0.0900
     37 H37        -6.9975   -0.5132   50.7434 H       1  ZINC000883773972    0.0800
     38 H38        -4.4776    0.9523   51.6117 H       1  ZINC000883773972    0.0900
     39 H39        -4.4869   -0.3608   50.4127 H       1  ZINC000883773972    0.0900
     40 H40        -3.7019    1.1209   48.6030 H       1  ZINC000883773972    0.0800
     41 H41        -4.5266    2.6656   48.2833 H       1  ZINC000883773972    0.0700
     42 H42        -3.5848    2.4524   49.7786 H       1  ZINC000883773972    0.0800
     43 H43        -8.3478    1.4610   50.7437 H       1  ZINC000883773972    0.1400
     44 H44        -8.2376    2.6607   52.0563 H       1  ZINC000883773972    0.1400
     45 H45       -11.0626   -0.6547   54.3155 H       1  ZINC000883773972    0.0800
     46 H46        -9.6136   -1.6599   54.0282 H       1  ZINC000883773972    0.0800
     47 H47       -12.1340   -3.1954   55.9546 H       1  ZINC000883773972    0.0900
     48 H48       -12.4830   -1.5292   55.4116 H       1  ZINC000883773972    0.0700
@<TRIPOS>BOND
     1     1     2    1
     2     1    28    1
     3     1    29    1
     4     1    30    1
     5     2     3    2
     6     2     4   am
     7     4    27    1
     8     4     5    1
     9     5     6    1
    10     5    31    1
    11     5    32    1
    12     6     7    1
    13     6    25    1
    14     6     8    1
    15     8     9    1
    16     8    33    1
    17     8    34    1
    18     9    10   am
    19     9    24    1
    20    10    11    2
    21    10    12   am
    22    12    13    1
    23    12    35    1
    24    13    14    1
    25    13    23    1
    26    13    15    1
    27    15    16    1
    28    15    36    1
    29    15    37    1
    30    16    17    1
    31    16    38    1
    32    16    39    1
    33    17    18    1
    34    17    19    1
    35    17    20    1
    36    19    40    1
    37    19    41    1
    38    19    42    1
    39    20    21    2
    40    20    22    2
    41    20    23    1
    42    23    43    1
    43    23    44    1
    44    24    25    1
    45    24    45    1
    46    24    46    1
    47    25    26    1
    48    25    27    1
    49    27    47    1
    50    27    48    1
@<TRIPOS>SUBSTRUCTURE
     1 ZINC000883773972        1 TEMP              0 ****  ****    0 ROOT


##########                                Name:    ZINC000938043669
##########                DOCK_Rotatable_Bonds:                   7
##########                         Heavy_Atoms:                  27
##########                    Molecular_Weight:             372.439
##########                DOCK_Rotatable_Bonds:                   7
##########                       Formal_Charge:           0.0499999
##########                     HBond_Acceptors:                   6
##########                        HBond_Donors:                   1
##########                         Heavy_Atoms:                  27
##########                          Grid_Score:          -30.000687
##########                     Grid_vdw_energy:          -26.715258
##########                      Grid_es_energy:           -3.285430
##########           Internal_energy_repulsive:           11.256426

@<TRIPOS>MOLECULE
ZINC000938043669
 52 55 1 0 0
SMALL
USER_CHARGES


@<TRIPOS>ATOM
      1 O1          1.7059    4.8639   56.8554 O.2     1  ZINC000938043669   -0.5000
      2 C2          0.7173    4.1716   56.7357 C.2     1  ZINC000938043669    0.5300
      3 C3          0.3971    3.1290   57.7757 C.3     1  ZINC000938043669    0.0500
      4 O4          1.5754    2.8264   58.5253 O.3     1  ZINC000938043669   -0.2800
      5 C5          1.4004    2.2544   59.7462 C.ar    1  ZINC000938043669    0.0900
      6 C6          0.2784    1.4796   59.9956 C.ar    1  ZINC000938043669   -0.1800
      7 C7          0.1026    0.8985   61.2374 C.ar    1  ZINC000938043669   -0.0900
      8 C8          1.0441    1.0889   62.2313 C.ar    1  ZINC000938043669   -0.1300
      9 C9          2.1648    1.8616   61.9869 C.ar    1  ZINC000938043669   -0.1100
     10 C10         2.3487    2.4407   60.7446 C.ar    1  ZINC000938043669    0.0800
     11 F11         3.4433    3.1955   60.5055 F       1  ZINC000938043669   -0.1300
     12 N12        -0.0979    4.3383   55.6754 N.am    1  ZINC000938043669   -0.6200
     13 C13         0.0935    5.3140   54.5925 C.3     1  ZINC000938043669    0.1000
     14 C14        -1.0663    5.1221   53.5927 C.3     1  ZINC000938043669   -0.1400
     15 C15        -1.5336    3.6701   53.8769 C.3     1  ZINC000938043669    0.1300
     16 H16        -0.9076    2.9485   53.3521 H       1  ZINC000938043669    0.1100
     17 N17        -2.9439    3.4934   53.5222 N.am    1  ZINC000938043669   -0.7200
     18 C18        -3.2778    2.9897   52.3176 C.2     1  ZINC000938043669    0.5200
     19 O19        -2.4107    2.6812   51.5278 O.2     1  ZINC000938043669   -0.5200
     20 C20        -4.7287    2.8096   51.9520 C.3     1  ZINC000938043669   -0.1000
     21 H21        -5.3488    2.9822   52.8316 H       1  ZINC000938043669    0.1000
     22 C22        -4.9528    1.3841   51.4422 C.3     1  ZINC000938043669   -0.1100
     23 C23        -5.4819    1.4310   50.0030 C.3     1  ZINC000938043669   -0.0600
     24 H24        -5.5999    0.4244   49.6017 H       1  ZINC000938043669    0.0800
     25 C25        -4.4936    2.2322   49.1687 C.2     1  ZINC000938043669   -0.1800
     26 C26        -4.2987    3.4719   49.6120 C.2     1  ZINC000938043669   -0.1300
     27 C27        -5.1075    3.8123   50.8546 C.3     1  ZINC000938043669   -0.0400
     28 H28        -4.9160    4.8375   51.1717 H       1  ZINC000938043669    0.0900
     29 C29        -6.5911    3.6163   50.5134 C.3     1  ZINC000938043669   -0.1200
     30 C30        -6.8240    2.1761   50.0067 C.3     1  ZINC000938043669   -0.1100
     31 C31        -1.3259    3.5682   55.4064 C.3     1  ZINC000938043669    0.1000
     32 H32        -0.3727    3.5099   58.4470 H       1  ZINC000938043669    0.1000
     33 H33         0.0365    2.2250   57.2850 H       1  ZINC000938043669    0.1000
     34 H34        -0.4582    1.3301   59.2201 H       1  ZINC000938043669    0.1400
     35 H35        -0.7719    0.2951   61.4315 H       1  ZINC000938043669    0.1300
     36 H36         0.9041    0.6337   63.2007 H       1  ZINC000938043669    0.1400
     37 H37         2.8987    2.0092   62.7653 H       1  ZINC000938043669    0.1500
     38 H38         0.0707    6.3260   54.9969 H       1  ZINC000938043669    0.0800
     39 H39         1.0460    5.1330   54.0945 H       1  ZINC000938043669    0.0800
     40 H40        -1.8692    5.8317   53.7925 H       1  ZINC000938043669    0.0900
     41 H41        -0.7110    5.2190   52.5667 H       1  ZINC000938043669    0.1000
     42 H42        -3.6375    3.7389   54.1545 H       1  ZINC000938043669    0.4000
     43 H43        -4.0097    0.8380   51.4646 H       1  ZINC000938043669    0.0700
     44 H44        -5.6791    0.8804   52.0799 H       1  ZINC000938043669    0.0800
     45 H45        -3.9963    1.8322   48.2974 H       1  ZINC000938043669    0.1200
     46 H46        -3.6282    4.1710   49.1344 H       1  ZINC000938043669    0.1200
     47 H47        -7.1940    3.7814   51.4064 H       1  ZINC000938043669    0.0700
     48 H48        -6.8833    4.3284   49.7415 H       1  ZINC000938043669    0.0700
     49 H49        -7.2225    2.2080   48.9926 H       1  ZINC000938043669    0.0700
     50 H50        -7.5352    1.6716   50.6604 H       1  ZINC000938043669    0.0700
     51 H51        -1.1977    2.5273   55.7033 H       1  ZINC000938043669    0.0900
     52 H52        -2.1696    4.0129   55.9342 H       1  ZINC000938043669    0.0700
@<TRIPOS>BOND
     1     1     2    2
     2     2     3    1
     3     2    12   am
     4     3     4    1
     5     3    32    1
     6     3    33    1
     7     4     5    1
     8     5    10   ar
     9     5     6   ar
    10     6     7   ar
    11     6    34    1
    12     7     8   ar
    13     7    35    1
    14     8     9   ar
    15     8    36    1
    16     9    10   ar
    17     9    37    1
    18    10    11    1
    19    12    31    1
    20    12    13    1
    21    13    14    1
    22    13    38    1
    23    13    39    1
    24    14    15    1
    25    14    40    1
    26    14    41    1
    27    15    16    1
    28    15    17    1
    29    15    31    1
    30    17    18   am
    31    17    42    1
    32    18    19    2
    33    18    20    1
    34    20    21    1
    35    20    27    1
    36    20    22    1
    37    22    23    1
    38    22    43    1
    39    22    44    1
    40    23    24    1
    41    23    30    1
    42    23    25    1
    43    25    26    2
    44    25    45    1
    45    26    27    1
    46    26    46    1
    47    27    28    1
    48    27    29    1
    49    29    30    1
    50    29    47    1
    51    29    48    1
    52    30    49    1
    53    30    50    1
    54    31    51    1
    55    31    52    1
@<TRIPOS>SUBSTRUCTURE
     1 ZINC000938043669        1 TEMP              0 ****  ****    0 ROOT


##########                                Name:    ZINC000474368324
##########                DOCK_Rotatable_Bonds:                   9
##########                         Heavy_Atoms:                  27
##########                    Molecular_Weight:             417.332
##########                DOCK_Rotatable_Bonds:                   9
##########                       Formal_Charge:        -1.63913e-07
##########                     HBond_Acceptors:                   8
##########                        HBond_Donors:                   1
##########                         Heavy_Atoms:                  27
##########                          Grid_Score:          -29.997589
##########                     Grid_vdw_energy:          -29.622032
##########                      Grid_es_energy:           -0.375557
##########           Internal_energy_repulsive:           26.017090

@<TRIPOS>MOLECULE
ZINC000474368324
 53 54 1 0 0
SMALL
USER_CHARGES


@<TRIPOS>ATOM
      1 C1        -10.3006   -2.0469   58.2960 C.3     1  ZINC000474368324   -0.1500
      2 C2        -11.2237   -2.8777   57.4024 C.3     1  ZINC000474368324    0.0600
      3 O3        -12.6066   -2.6181   57.7609 O.3     1  ZINC000474368324   -0.3300
      4 C4        -13.5507   -3.2422   57.0392 C.2     1  ZINC000474368324    0.4700
      5 O5        -13.6124   -4.4489   57.0398 O.2     1  ZINC000474368324   -0.5100
      6 C6        -14.5337   -2.4379   56.2281 C.3     1  ZINC000474368324   -0.0400
      7 C7        -15.5818   -1.8249   57.1592 C.3     1  ZINC000474368324    0.0600
      8 O8        -15.3624   -2.2872   58.4934 O.3     1  ZINC000474368324   -0.3700
      9 C9        -16.1952   -3.3848   58.8725 C.3     1  ZINC000474368324    0.0300
     10 C10       -13.7923   -1.3209   55.4899 C.3     1  ZINC000474368324   -0.1200
     11 C11       -14.7992   -0.4844   54.6942 C.3     1  ZINC000474368324    0.1100
     12 N12       -15.5696   -1.3782   53.8189 N.am    1  ZINC000474368324   -0.6300
     13 C13       -15.6520   -1.1396   52.4951 C.2     1  ZINC000474368324    0.7100
     14 O14       -15.0855   -0.1772   52.0143 O.2     1  ZINC000474368324   -0.5800
     15 N15       -16.3623   -1.9680   51.7039 N.am    1  ZINC000474368324   -0.7400
     16 C16       -16.4518   -1.7087   50.2649 C.3     1  ZINC000474368324    0.2000
     17 H17       -15.5824   -1.1350   49.9442 H       1  ZINC000474368324    0.1100
     18 C18       -17.7250   -0.9138   49.9682 C.3     1  ZINC000474368324   -0.1600
     19 C19       -16.4922   -3.0182   49.5201 C.ar    1  ZINC000474368324   -0.0700
     20 C20       -17.2592   -4.0628   50.0001 C.ar    1  ZINC000474368324   -0.1000
     21 C21       -17.2972   -5.2645   49.3171 C.ar    1  ZINC000474368324   -0.0900
     22 C22       -16.5681   -5.4222   48.1537 C.ar    1  ZINC000474368324   -0.1000
     23 C23       -15.7998   -4.3776   47.6717 C.ar    1  ZINC000474368324   -0.0300
     24 Cl24      -14.8839   -4.5753   46.2104 Cl      1  ZINC000474368324   -0.0400
     25 C25       -15.7660   -3.1727   48.3528 C.ar    1  ZINC000474368324   -0.0300
     26 Cl26      -14.8028   -1.8606   47.7490 Cl      1  ZINC000474368324   -0.0400
     27 C27       -16.2483   -2.5375   54.4143 C.3     1  ZINC000474368324    0.1300
     28 C28       -15.2252   -3.3510   55.2132 C.3     1  ZINC000474368324   -0.1200
     29 H29        -9.2625   -2.2419   58.0269 H       1  ZINC000474368324    0.0800
     30 H30       -10.5187   -0.9878   58.1588 H       1  ZINC000474368324    0.0700
     31 H31       -10.4629   -2.3192   59.3389 H       1  ZINC000474368324    0.0700
     32 H32       -11.0614   -2.6055   56.3595 H       1  ZINC000474368324    0.0700
     33 H33       -11.0055   -3.9368   57.5396 H       1  ZINC000474368324    0.0700
     34 H34       -15.4998   -0.7383   57.1331 H       1  ZINC000474368324    0.0700
     35 H35       -16.5778   -2.1221   56.8308 H       1  ZINC000474368324    0.0600
     36 H36       -17.2417   -3.0879   58.8029 H       1  ZINC000474368324    0.0400
     37 H37       -16.0116   -4.2274   58.2058 H       1  ZINC000474368324    0.0400
     38 H38       -15.9676   -3.6765   59.8978 H       1  ZINC000474368324    0.0900
     39 H39       -13.2809   -0.6845   56.2122 H       1  ZINC000474368324    0.1000
     40 H40       -13.0627   -1.7575   54.8081 H       1  ZINC000474368324    0.0800
     41 H41       -15.4746    0.0256   55.3813 H       1  ZINC000474368324    0.0800
     42 H42       -14.2671    0.2499   54.0893 H       1  ZINC000474368324    0.0800
     43 H43       -16.8141   -2.7359   52.0875 H       1  ZINC000474368324    0.3900
     44 H44       -18.5946   -1.4876   50.2888 H       1  ZINC000474368324    0.0600
     45 H45       -17.6959    0.0333   50.5069 H       1  ZINC000474368324    0.0700
     46 H46       -17.7917   -0.7209   48.8974 H       1  ZINC000474368324    0.0700
     47 H47       -17.8290   -3.9406   50.9094 H       1  ZINC000474368324    0.1300
     48 H48       -17.8967   -6.0803   49.6933 H       1  ZINC000474368324    0.1400
     49 H49       -16.5979   -6.3613   47.6209 H       1  ZINC000474368324    0.1500
     50 H50       -17.0418   -2.1950   55.0785 H       1  ZINC000474368324    0.0700
     51 H51       -16.6722   -3.1580   53.6248 H       1  ZINC000474368324    0.1100
     52 H52       -14.4820   -3.7684   54.5339 H       1  ZINC000474368324    0.0900
     53 H53       -15.7335   -4.1596   55.7384 H       1  ZINC000474368324    0.0900
@<TRIPOS>BOND
     1     1     2    1
     2     1    29    1
     3     1    30    1
     4     1    31    1
     5     2     3    1
     6     2    32    1
     7     2    33    1
     8     3     4    1
     9     4     5    2
    10     4     6    1
    11     6    28    1
    12     6     7    1
    13     6    10    1
    14     7     8    1
    15     7    34    1
    16     7    35    1
    17     8     9    1
    18     9    36    1
    19     9    37    1
    20     9    38    1
    21    10    11    1
    22    10    39    1
    23    10    40    1
    24    11    12    1
    25    11    41    1
    26    11    42    1
    27    12    13   am
    28    12    27    1
    29    13    14    2
    30    13    15   am
    31    15    16    1
    32    15    43    1
    33    16    17    1
    34    16    18    1
    35    16    19    1
    36    18    44    1
    37    18    45    1
    38    18    46    1
    39    19    25   ar
    40    19    20   ar
    41    20    21   ar
    42    20    47    1
    43    21    22   ar
    44    21    48    1
    45    22    23   ar
    46    22    49    1
    47    23    24    1
    48    23    25   ar
    49    25    26    1
    50    27    28    1
    51    27    50    1
    52    27    51    1
    53    28    52    1
    54    28    53    1
@<TRIPOS>SUBSTRUCTURE
     1 ZINC000474368324        1 TEMP              0 ****  ****    0 ROOT


##########                                Name:    ZINC000461336108
##########                DOCK_Rotatable_Bonds:                   5
##########                         Heavy_Atoms:                  26
##########                    Molecular_Weight:             373.522
##########                DOCK_Rotatable_Bonds:                   5
##########                       Formal_Charge:        -3.42727e-07
##########                     HBond_Acceptors:                   7
##########                        HBond_Donors:                   0
##########                         Heavy_Atoms:                  26
##########                          Grid_Score:          -29.977554
##########                     Grid_vdw_energy:          -30.116148
##########                      Grid_es_energy:            0.138594
##########           Internal_energy_repulsive:           14.790210

@<TRIPOS>MOLECULE
ZINC000461336108
 53 56 1 0 0
SMALL
USER_CHARGES


@<TRIPOS>ATOM
      1 C1         -4.7704    0.4515   49.7342 C.3     1  ZINC000461336108   -0.1300
      2 C2         -4.9902    1.9656   49.7547 C.3     1  ZINC000461336108    0.0700
      3 H3         -5.1977    2.3146   48.7431 H       1  ZINC000461336108    0.0800
      4 C4         -6.1584    2.2879   50.6429 C.2     1  ZINC000461336108    0.5300
      5 O5         -7.1500    1.5931   50.5740 O.2     1  ZINC000461336108   -0.5300
      6 N6         -6.1504    3.3087   51.5067 N.am    1  ZINC000461336108   -0.6100
      7 C7         -7.3542    3.5619   52.3020 C.3     1  ZINC000461336108    0.0700
      8 C8         -4.9950    4.1818   51.6926 C.3     1  ZINC000461336108    0.1200
      9 C9         -4.0444    4.0546   50.5008 C.3     1  ZINC000461336108    0.0400
     10 N10        -3.7800    2.6272   50.2604 N.3     1  ZINC000461336108   -0.4300
     11 C11        -2.7217    2.4593   49.3817 C.2     1  ZINC000461336108    0.3300
     12 N12        -2.8051    2.2944   48.0826 N.2     1  ZINC000461336108   -0.2500
     13 N13        -1.6281    2.1704   47.5816 N.2     1  ZINC000461336108   -0.2800
     14 C14        -0.7311    2.2481   48.5236 C.2     1  ZINC000461336108    0.2000
     15 C15         0.7621    2.1511   48.3453 C.3     1  ZINC000461336108   -0.0300
     16 C16         1.0866    1.9433   46.8647 C.3     1  ZINC000461336108   -0.0900
     17 C17         2.5099    2.4634   46.5435 C.3     1  ZINC000461336108   -0.1200
     18 C18         2.8878    1.6622   45.2729 C.3     1  ZINC000461336108   -0.1200
     19 C19         2.2948    0.2597   45.5196 C.3     1  ZINC000461336108   -0.1300
     20 C20         1.1497    0.4384   46.5317 C.3     1  ZINC000461336108   -0.1200
     21 N21        -1.3957    2.4400   49.7032 N.pl3   1  ZINC000461336108   -0.4900
     22 C22        -0.8067    2.5861   51.0365 C.3     1  ZINC000461336108    0.1700
     23 C23        -0.5756    4.0468   51.3263 C.2     1  ZINC000461336108   -0.2400
     24 C24        -0.2357    4.9659   50.4213 C.2     1  ZINC000461336108   -0.0900
     25 C25        -0.0777    6.2468   50.9218 C.2     1  ZINC000461336108   -0.1400
     26 C26        -0.2892    6.3678   52.2332 C.2     1  ZINC000461336108   -0.2000
     27 S27        -0.7202    4.8019   52.9082 S.3     1  ZINC000461336108    0.1200
     28 H28        -4.5628    0.1008   50.7452 H       1  ZINC000461336108    0.0800
     29 H29        -5.6662   -0.0406   49.3557 H       1  ZINC000461336108    0.0800
     30 H30        -3.9255    0.2158   49.0872 H       1  ZINC000461336108    0.0700
     31 H31        -8.1191    2.8284   52.0472 H       1  ZINC000461336108    0.0900
     32 H32        -7.1129    3.4818   53.3620 H       1  ZINC000461336108    0.0700
     33 H33        -7.7264    4.5641   52.0889 H       1  ZINC000461336108    0.0600
     34 H34        -5.3324    5.2149   51.7775 H       1  ZINC000461336108    0.0900
     35 H35        -4.4707    3.8984   52.6053 H       1  ZINC000461336108    0.0900
     36 H36        -4.5049    4.4964   49.6171 H       1  ZINC000461336108    0.0500
     37 H37        -3.1087    4.5676   50.7232 H       1  ZINC000461336108    0.1100
     38 H38         1.2303    3.0715   48.6942 H       1  ZINC000461336108    0.0800
     39 H39         1.1429    1.3084   48.9224 H       1  ZINC000461336108    0.1000
     40 H40         0.3460    2.4417   46.2392 H       1  ZINC000461336108    0.0900
     41 H41         2.4923    3.5330   46.3348 H       1  ZINC000461336108    0.0600
     42 H42         3.1964    2.2392   47.3599 H       1  ZINC000461336108    0.0600
     43 H43         2.4398    2.1157   44.3887 H       1  ZINC000461336108    0.0700
     44 H44         3.9711    1.6052   45.1661 H       1  ZINC000461336108    0.0700
     45 H45         1.9083   -0.1516   44.5872 H       1  ZINC000461336108    0.0700
     46 H46         3.0576   -0.4010   45.9318 H       1  ZINC000461336108    0.0600
     47 H47         1.3567   -0.1355   47.4350 H       1  ZINC000461336108    0.0700
     48 H48         0.2073    0.1138   46.0904 H       1  ZINC000461336108    0.0700
     49 H49        -1.4860    2.1710   51.7812 H       1  ZINC000461336108    0.1200
     50 H50         0.1435    2.0534   51.0744 H       1  ZINC000461336108    0.1000
     51 H51        -0.0942    4.7285   49.3773 H       1  ZINC000461336108    0.1400
     52 H52         0.1965    7.0845   50.2978 H       1  ZINC000461336108    0.1500
     53 H53        -0.2113    7.2875   52.7941 H       1  ZINC000461336108    0.1700
@<TRIPOS>BOND
     1     1     2    1
     2     1    28    1
     3     1    29    1
     4     1    30    1
     5     2     3    1
     6     2    10    1
     7     2     4    1
     8     4     5    2
     9     4     6   am
    10     6     7    1
    11     6     8    1
    12     7    31    1
    13     7    32    1
    14     7    33    1
    15     8     9    1
    16     8    34    1
    17     8    35    1
    18     9    10    1
    19     9    36    1
    20     9    37    1
    21    10    11    1
    22    11    21    1
    23    11    12    2
    24    12    13    1
    25    13    14    2
    26    14    15    1
    27    14    21    1
    28    15    16    1
    29    15    38    1
    30    15    39    1
    31    16    20    1
    32    16    17    1
    33    16    40    1
    34    17    18    1
    35    17    41    1
    36    17    42    1
    37    18    19    1
    38    18    43    1
    39    18    44    1
    40    19    20    1
    41    19    45    1
    42    19    46    1
    43    20    47    1
    44    20    48    1
    45    21    22    1
    46    22    23    1
    47    22    49    1
    48    22    50    1
    49    23    27    1
    50    23    24    2
    51    24    25    1
    52    24    51    1
    53    25    26    2
    54    25    52    1
    55    26    27    1
    56    26    53    1
@<TRIPOS>SUBSTRUCTURE
     1 ZINC000461336108        1 TEMP              0 ****  ****    0 ROOT


##########                                Name:    ZINC001282645012
##########                DOCK_Rotatable_Bonds:                   9
##########                         Heavy_Atoms:                  27
##########                    Molecular_Weight:             372.511
##########                DOCK_Rotatable_Bonds:                   9
##########                       Formal_Charge:          -0.0200004
##########                     HBond_Acceptors:                   6
##########                        HBond_Donors:                   1
##########                         Heavy_Atoms:                  27
##########                          Grid_Score:          -29.973629
##########                     Grid_vdw_energy:          -29.594193
##########                      Grid_es_energy:           -0.379436
##########           Internal_energy_repulsive:           31.885075

@<TRIPOS>MOLECULE
ZINC001282645012
 59 61 1 0 0
SMALL
USER_CHARGES


@<TRIPOS>ATOM
      1 C1         -9.9310    2.2597   55.1994 C.2     1  ZINC001282645012   -0.1900
      2 C2         -9.5136    1.1554   54.6314 C.2     1  ZINC001282645012   -0.1300
      3 C3         -9.9874    0.7945   53.2471 C.3     1  ZINC001282645012   -0.0500
      4 C4         -9.4350   -0.5791   52.8611 C.3     1  ZINC001282645012   -0.1500
      5 C5        -11.5168    0.7535   53.2260 C.3     1  ZINC001282645012   -0.1400
      6 C6         -9.4990    1.8268   52.2638 C.2     1  ZINC001282645012    0.5500
      7 O7        -10.2810    2.3596   51.5054 O.2     1  ZINC001282645012   -0.5300
      8 N8         -8.1930    2.1580   52.2275 N.am    1  ZINC001282645012   -0.6300
      9 C9         -7.0306    1.6615   53.0396 C.3     1  ZINC001282645012    0.1200
     10 H10        -7.2640    0.9102   53.7938 H       1  ZINC001282645012    0.1300
     11 C11        -6.4514    3.0024   53.5829 C.3     1  ZINC001282645012   -0.1300
     12 C12        -6.7381    4.0077   52.4404 C.3     1  ZINC001282645012   -0.1300
     13 C13        -7.4504    3.1325   51.3579 C.3     1  ZINC001282645012    0.1200
     14 H14        -8.0548    3.6792   50.6341 H       1  ZINC001282645012    0.1200
     15 C15        -6.3253    2.2381   50.7555 C.3     1  ZINC001282645012    0.1300
     16 H16        -6.6822    1.7189   49.8661 H       1  ZINC001282645012    0.1000
     17 N17        -5.1405    3.0408   50.4418 N.am    1  ZINC001282645012   -0.7100
     18 C18        -4.0087    2.4381   50.0269 C.2     1  ZINC001282645012    0.5100
     19 O19        -3.9705    1.2311   49.9146 O.2     1  ZINC001282645012   -0.5100
     20 C20        -2.7906    3.2639   49.7025 C.3     1  ZINC001282645012    0.1200
     21 H21        -3.0922    4.2909   49.4964 H       1  ZINC001282645012    0.1300
     22 C22        -1.8290    3.2436   50.8923 C.3     1  ZINC001282645012   -0.1100
     23 C23        -1.1057    4.5885   50.9865 C.3     1  ZINC001282645012   -0.1000
     24 C24        -1.9979    5.5978   51.7119 C.3     1  ZINC001282645012   -0.1500
     25 C25         0.2005    4.4118   51.7633 C.3     1  ZINC001282645012   -0.1500
     26 N26        -2.1218    2.7058   48.5245 N.pl3   1  ZINC001282645012   -0.4500
     27 C27        -0.7794    2.7412   48.2597 C.2     1  ZINC001282645012   -0.0600
     28 C28        -0.5982    2.1158   47.0809 C.2     1  ZINC001282645012   -0.0200
     29 N29        -1.7972    1.7097   46.6379 N.2     1  ZINC001282645012   -0.4900
     30 C30        -2.7140    2.0552   47.5000 C.2     1  ZINC001282645012    0.1900
     31 C31        -6.0539    1.2041   51.9145 C.3     1  ZINC001282645012   -0.1400
     32 H32       -10.6145    2.9115   54.6754 H       1  ZINC001282645012    0.1000
     33 H33        -9.5950    2.5161   56.1932 H       1  ZINC001282645012    0.1000
     34 H34        -8.8302    0.5037   55.1553 H       1  ZINC001282645012    0.1100
     35 H35        -9.7884   -1.3258   53.5722 H       1  ZINC001282645012    0.0700
     36 H36        -9.7778   -0.8402   51.8598 H       1  ZINC001282645012    0.0700
     37 H37        -8.3456   -0.5500   52.8760 H       1  ZINC001282645012    0.0600
     38 H38       -11.9103    1.7321   53.5011 H       1  ZINC001282645012    0.0600
     39 H39       -11.8594    0.4924   52.2248 H       1  ZINC001282645012    0.0700
     40 H40       -11.8700    0.0069   53.9372 H       1  ZINC001282645012    0.0700
     41 H41        -6.9667    3.3014   54.4957 H       1  ZINC001282645012    0.0800
     42 H42        -5.3790    2.9149   53.7571 H       1  ZINC001282645012    0.0800
     43 H43        -7.3956    4.8051   52.7867 H       1  ZINC001282645012    0.0700
     44 H44        -5.8079    4.4186   52.0482 H       1  ZINC001282645012    0.0800
     45 H45        -5.1707    4.0060   50.5327 H       1  ZINC001282645012    0.4000
     46 H46        -2.3902    3.0678   51.8100 H       1  ZINC001282645012    0.0900
     47 H47        -1.0980    2.4467   50.7551 H       1  ZINC001282645012    0.0800
     48 H48        -0.8853    4.9536   49.9834 H       1  ZINC001282645012    0.0700
     49 H49        -2.2183    5.2327   52.7151 H       1  ZINC001282645012    0.0600
     50 H50        -1.4826    6.5559   51.7790 H       1  ZINC001282645012    0.0600
     51 H51        -2.9285    5.7236   51.1585 H       1  ZINC001282645012    0.0500
     52 H52         0.8707    3.7594   51.2035 H       1  ZINC001282645012    0.0600
     53 H53         0.6736    5.3836   51.9045 H       1  ZINC001282645012    0.0600
     54 H54        -0.0120    3.9666   52.7351 H       1  ZINC001282645012    0.0600
     55 H55        -0.0128    3.1855   48.8773 H       1  ZINC001282645012    0.1700
     56 H56         0.3470    1.9673   46.5798 H       1  ZINC001282645012    0.1700
     57 H57        -3.7719    1.8592   47.4063 H       1  ZINC001282645012    0.2000
     58 H58        -5.0264    1.2855   52.2689 H       1  ZINC001282645012    0.0900
     59 H59        -6.2667    0.1886   51.5806 H       1  ZINC001282645012    0.0900
@<TRIPOS>BOND
     1     1     2    2
     2     1    32    1
     3     1    33    1
     4     2     3    1
     5     2    34    1
     6     3     4    1
     7     3     5    1
     8     3     6    1
     9     4    35    1
    10     4    36    1
    11     4    37    1
    12     5    38    1
    13     5    39    1
    14     5    40    1
    15     6     7    2
    16     6     8   am
    17     8    13    1
    18     8     9    1
    19     9    10    1
    20     9    31    1
    21     9    11    1
    22    11    12    1
    23    11    41    1
    24    11    42    1
    25    12    13    1
    26    12    43    1
    27    12    44    1
    28    13    14    1
    29    13    15    1
    30    15    16    1
    31    15    17    1
    32    15    31    1
    33    17    18   am
    34    17    45    1
    35    18    19    2
    36    18    20    1
    37    20    21    1
    38    20    22    1
    39    20    26    1
    40    22    23    1
    41    22    46    1
    42    22    47    1
    43    23    24    1
    44    23    25    1
    45    23    48    1
    46    24    49    1
    47    24    50    1
    48    24    51    1
    49    25    52    1
    50    25    53    1
    51    25    54    1
    52    26    30    1
    53    26    27    1
    54    27    28    2
    55    27    55    1
    56    28    29    1
    57    28    56    1
    58    29    30    2
    59    30    57    1
    60    31    58    1
    61    31    59    1
@<TRIPOS>SUBSTRUCTURE
     1 ZINC001282645012        1 TEMP              0 ****  ****    0 ROOT


##########                                Name:    ZINC000866717058
##########                DOCK_Rotatable_Bonds:                   7
##########                         Heavy_Atoms:                  25
##########                    Molecular_Weight:             380.388
##########                DOCK_Rotatable_Bonds:                   7
##########                       Formal_Charge:                0.04
##########                     HBond_Acceptors:                  10
##########                        HBond_Donors:                   1
##########                         Heavy_Atoms:                  25
##########                          Grid_Score:          -29.945299
##########                     Grid_vdw_energy:          -29.736536
##########                      Grid_es_energy:           -0.208763
##########           Internal_energy_repulsive:            9.530421

@<TRIPOS>MOLECULE
ZINC000866717058
 44 45 1 0 0
SMALL
USER_CHARGES


@<TRIPOS>ATOM
      1 C1         -5.5848    3.3652   55.7370 C.3     1  ZINC000866717058   -0.1100
      2 C2         -6.4372    2.4858   54.8591 C.ar    1  ZINC000866717058    0.2400
      3 N3         -6.2181    2.4516   53.5615 N.ar    1  ZINC000866717058   -0.5500
      4 C4         -6.9417    1.6940   52.7513 C.ar    1  ZINC000866717058    0.3500
      5 O5         -6.6758    1.6938   51.4226 O.3     1  ZINC000866717058   -0.2800
      6 C6         -5.3652    1.2877   51.0234 C.3     1  ZINC000866717058    0.0500
      7 H7         -4.7407    1.1558   51.9069 H       1  ZINC000866717058    0.1300
      8 C8         -5.4519   -0.0343   50.2581 C.3     1  ZINC000866717058   -0.1700
      9 C9         -4.7518    2.3601   50.1209 C.3     1  ZINC000866717058    0.4600
     10 F10        -3.5713    1.8711   49.5514 F       1  ZINC000866717058   -0.1700
     11 F11        -5.6572    2.6897   49.1065 F       1  ZINC000866717058   -0.1700
     12 F12        -4.4661    3.5005   50.8794 F       1  ZINC000866717058   -0.1700
     13 C13        -7.9705    0.8980   53.2448 C.ar    1  ZINC000866717058   -0.1900
     14 C14        -8.2363    0.9019   54.5989 C.ar    1  ZINC000866717058    0.0000
     15 C15        -7.4479    1.7110   55.4301 C.ar    1  ZINC000866717058   -0.2300
     16 C16        -7.6908    1.7510   56.8855 C.2     1  ZINC000866717058    0.5800
     17 O17        -8.2376    2.7156   57.3843 O.2     1  ZINC000866717058   -0.5200
     18 N18        -7.3063    0.7182   57.6616 N.am    1  ZINC000866717058   -0.7400
     19 C19        -7.5459    0.7587   59.1063 C.3     1  ZINC000866717058    0.1400
     20 C20        -9.0309    0.5168   59.3839 C.3     1  ZINC000866717058   -0.5700
     21 H21        -9.6444    1.2588   58.8726 H       1  ZINC000866717058    0.1500
     22 C22        -9.4420   -0.9188   58.9667 C.3     1  ZINC000866717058   -0.1100
     23 C23       -10.7537   -1.2338   59.7070 C.3     1  ZINC000866717058   -0.1200
     24 C24       -10.5937   -0.8354   61.1876 C.3     1  ZINC000866717058   -0.5900
     25 S25        -9.3658    0.5257   61.1858 S.o2    1  ZINC000866717058    2.3700
     26 O26        -8.1987    0.1080   61.8804 O.2     1  ZINC000866717058   -0.9200
     27 O27       -10.0092    1.7407   61.5452 O.2     1  ZINC000866717058   -0.9300
     28 H28        -4.7816    2.7724   56.1747 H       1  ZINC000866717058    0.0900
     29 H29        -5.1578    4.1705   55.1394 H       1  ZINC000866717058    0.0700
     30 H30        -6.1984    3.7888   56.5322 H       1  ZINC000866717058    0.1100
     31 H31        -4.4522   -0.3441   49.9535 H       1  ZINC000866717058    0.0900
     32 H32        -5.8888   -0.7983   50.9009 H       1  ZINC000866717058    0.0900
     33 H33        -6.0763    0.0977   49.3745 H       1  ZINC000866717058    0.0800
     34 H34        -8.5549    0.2841   52.5755 H       1  ZINC000866717058    0.1600
     35 H35        -9.0292    0.2941   55.0090 H       1  ZINC000866717058    0.1500
     36 H36        -6.8712   -0.0518   57.2635 H       1  ZINC000866717058    0.4000
     37 H37        -6.9542   -0.0156   59.5945 H       1  ZINC000866717058    0.1000
     38 H38        -7.2579    1.7354   59.4952 H       1  ZINC000866717058    0.1000
     39 H39        -9.6013   -0.9633   57.8894 H       1  ZINC000866717058    0.1100
     40 H40        -8.6684   -1.6286   59.2597 H       1  ZINC000866717058    0.0900
     41 H41       -11.5712   -0.6670   59.2613 H       1  ZINC000866717058    0.0900
     42 H42       -10.9679   -2.3001   59.6355 H       1  ZINC000866717058    0.1000
     43 H43       -11.5439   -0.4841   61.5900 H       1  ZINC000866717058    0.1400
     44 H44       -10.2247   -1.6803   61.7692 H       1  ZINC000866717058    0.1400
@<TRIPOS>BOND
     1     1     2    1
     2     1    28    1
     3     1    29    1
     4     1    30    1
     5     2    15   ar
     6     2     3   ar
     7     3     4   ar
     8     4     5    1
     9     4    13   ar
    10     5     6    1
    11     6     7    1
    12     6     8    1
    13     6     9    1
    14     8    31    1
    15     8    32    1
    16     8    33    1
    17     9    10    1
    18     9    11    1
    19     9    12    1
    20    13    14   ar
    21    13    34    1
    22    14    15   ar
    23    14    35    1
    24    15    16    1
    25    16    17    2
    26    16    18   am
    27    18    19    1
    28    18    36    1
    29    19    20    1
    30    19    37    1
    31    19    38    1
    32    20    21    1
    33    20    25    1
    34    20    22    1
    35    22    23    1
    36    22    39    1
    37    22    40    1
    38    23    24    1
    39    23    41    1
    40    23    42    1
    41    24    25    1
    42    24    43    1
    43    24    44    1
    44    25    26    2
    45    25    27    2
@<TRIPOS>SUBSTRUCTURE
     1 ZINC000866717058        1 TEMP              0 ****  ****    0 ROOT


##########                                Name:    ZINC001060733018
##########                DOCK_Rotatable_Bonds:                   7
##########                         Heavy_Atoms:                  24
##########                    Molecular_Weight:             342.429
##########                DOCK_Rotatable_Bonds:                   7
##########                       Formal_Charge:           0.0200001
##########                     HBond_Acceptors:                   6
##########                        HBond_Donors:                   2
##########                         Heavy_Atoms:                  24
##########                          Grid_Score:          -29.943768
##########                     Grid_vdw_energy:          -29.843607
##########                      Grid_es_energy:           -0.100160
##########           Internal_energy_repulsive:            5.401033

@<TRIPOS>MOLECULE
ZINC001060733018
 52 54 1 0 0
SMALL
USER_CHARGES


@<TRIPOS>ATOM
      1 O1         -2.2378    1.7195   47.9485 O.2     1  ZINC001060733018   -0.5000
      2 C2         -2.1917    2.4216   48.9363 C.2     1  ZINC001060733018    0.4700
      3 N3         -3.3016    2.6192   49.6750 N.am    1  ZINC001060733018   -0.7100
      4 C4         -4.5646    1.9894   49.2823 C.3     1  ZINC001060733018    0.1200
      5 C5         -5.4517    1.8125   50.5163 C.3     1  ZINC001060733018   -0.1000
      6 H6         -5.0352    2.3813   51.3477 H       1  ZINC001060733018    0.0800
      7 C7         -6.8619    2.3192   50.2074 C.3     1  ZINC001060733018   -0.1100
      8 C8         -7.7490    2.1424   51.4415 C.3     1  ZINC001060733018   -0.1300
      9 C9         -7.8104    0.6605   51.8174 C.3     1  ZINC001060733018    0.1400
     10 H10        -8.2269    0.0918   50.9860 H       1  ZINC001060733018    0.0900
     11 N11        -8.6598    0.4913   52.9989 N.am    1  ZINC001060733018   -0.7300
     12 C12        -9.9902    0.3308   52.8551 C.2     1  ZINC001060733018    0.5200
     13 O13       -10.4841    0.3251   51.7474 O.2     1  ZINC001060733018   -0.5400
     14 C14       -10.8641    0.1584   54.0706 C.3     1  ZINC001060733018   -0.1000
     15 H15       -11.8462   -0.2014   53.7640 H       1  ZINC001060733018    0.1000
     16 C16       -11.0137    1.5021   54.7858 C.3     1  ZINC001060733018   -0.1100
     17 C17       -11.9589    1.3522   55.9787 C.3     1  ZINC001060733018   -0.1200
     18 C18       -11.3523    0.3754   56.9908 C.3     1  ZINC001060733018   -0.0800
     19 C19       -11.0758   -0.9574   56.2888 C.3     1  ZINC001060733018   -0.1300
     20 C20       -12.1752   -2.0187   56.3220 C.3     1  ZINC001060733018   -0.1700
     21 C21       -10.9091   -2.2003   57.1620 C.3     1  ZINC001060733018   -0.1700
     22 C22       -10.2222   -0.8567   55.0213 C.3     1  ZINC001060733018   -0.0600
     23 C23        -6.4001    0.1538   52.1261 C.3     1  ZINC001060733018   -0.1200
     24 C24        -5.5131    0.3307   50.8921 C.3     1  ZINC001060733018   -0.1100
     25 C25        -0.8921    3.0680   49.3414 C.3     1  ZINC001060733018    0.2600
     26 F26        -1.1244    4.4024   49.6917 F       1  ZINC001060733018   -0.1700
     27 F27        -0.3531    2.3853   50.4371 F       1  ZINC001060733018   -0.1900
     28 H28        -3.2641    3.1785   50.4667 H       1  ZINC001060733018    0.4100
     29 H29        -5.0751    2.6212   48.5554 H       1  ZINC001060733018    0.0800
     30 H30        -4.3619    1.0149   48.8379 H       1  ZINC001060733018    0.0800
     31 H31        -6.8182    3.3749   49.9397 H       1  ZINC001060733018    0.0700
     32 H32        -7.2784    1.7505   49.3761 H       1  ZINC001060733018    0.0700
     33 H33        -8.7536    2.5033   51.2215 H       1  ZINC001060733018    0.0700
     34 H34        -7.3325    2.7111   52.2728 H       1  ZINC001060733018    0.0600
     35 H35        -8.2646    0.4946   53.8848 H       1  ZINC001060733018    0.4000
     36 H36       -10.0374    1.8362   55.1369 H       1  ZINC001060733018    0.0700
     37 H37       -11.4208    2.2381   54.0925 H       1  ZINC001060733018    0.0700
     38 H38       -12.1030    2.3233   56.4524 H       1  ZINC001060733018    0.0700
     39 H39       -12.9198    0.9694   55.6352 H       1  ZINC001060733018    0.0700
     40 H40       -10.4192    0.7841   57.3786 H       1  ZINC001060733018    0.0700
     41 H41       -12.0525    0.2177   57.8110 H       1  ZINC001060733018    0.0700
     42 H42       -13.0974   -1.7721   56.8482 H       1  ZINC001060733018    0.0900
     43 H43       -12.2906   -2.6517   55.4421 H       1  ZINC001060733018    0.0900
     44 H44       -10.1915   -2.9527   56.8348 H       1  ZINC001060733018    0.0900
     45 H45       -10.9979   -2.0730   58.2409 H       1  ZINC001060733018    0.0900
     46 H46       -10.1732   -1.8314   54.5357 H       1  ZINC001060733018    0.0700
     47 H47        -9.2170   -0.5265   55.2833 H       1  ZINC001060733018    0.0800
     48 H48        -6.4439   -0.9018   52.3940 H       1  ZINC001060733018    0.0700
     49 H49        -5.9837    0.7226   52.9575 H       1  ZINC001060733018    0.0700
     50 H50        -5.9295   -0.2381   50.0608 H       1  ZINC001060733018    0.0700
     51 H51        -4.5084   -0.0303   51.1121 H       1  ZINC001060733018    0.0700
     52 H52        -0.1910    3.0280   48.5077 H       1  ZINC001060733018    0.1400
@<TRIPOS>BOND
     1     1     2    2
     2     2     3   am
     3     2    25    1
     4     3     4    1
     5     3    28    1
     6     4     5    1
     7     4    29    1
     8     4    30    1
     9     5     6    1
    10     5    24    1
    11     5     7    1
    12     7     8    1
    13     7    31    1
    14     7    32    1
    15     8     9    1
    16     8    33    1
    17     8    34    1
    18     9    10    1
    19     9    11    1
    20     9    23    1
    21    11    12   am
    22    11    35    1
    23    12    13    2
    24    12    14    1
    25    14    15    1
    26    14    22    1
    27    14    16    1
    28    16    17    1
    29    16    36    1
    30    16    37    1
    31    17    18    1
    32    17    38    1
    33    17    39    1
    34    18    19    1
    35    18    40    1
    36    18    41    1
    37    19    21    1
    38    19    20    1
    39    19    22    1
    40    20    21    1
    41    20    42    1
    42    20    43    1
    43    21    44    1
    44    21    45    1
    45    22    46    1
    46    22    47    1
    47    23    24    1
    48    23    48    1
    49    23    49    1
    50    24    50    1
    51    24    51    1
    52    25    26    1
    53    25    27    1
    54    25    52    1
@<TRIPOS>SUBSTRUCTURE
     1 ZINC001060733018        1 TEMP              0 ****  ****    0 ROOT


##########                                Name:    ZINC000469435497
##########                DOCK_Rotatable_Bonds:                   6
##########                         Heavy_Atoms:                  27
##########                    Molecular_Weight:             364.444
##########                DOCK_Rotatable_Bonds:                   6
##########                       Formal_Charge:           0.0300001
##########                     HBond_Acceptors:                   5
##########                        HBond_Donors:                   2
##########                         Heavy_Atoms:                  27
##########                          Grid_Score:          -29.929699
##########                     Grid_vdw_energy:          -29.508879
##########                      Grid_es_energy:           -0.420819
##########           Internal_energy_repulsive:            4.102505

@<TRIPOS>MOLECULE
ZINC000469435497
 51 54 1 0 0
SMALL
USER_CHARGES


@<TRIPOS>ATOM
      1 C1         -3.2507    3.9594   50.7138 C.3     1  ZINC000469435497   -0.1600
      2 C2         -3.7947    2.7951   49.8835 C.3     1  ZINC000469435497    0.1000
      3 C3         -2.7959    2.3944   48.7960 C.3     1  ZINC000469435497   -0.1400
      4 C4         -4.1376    1.5891   50.7896 C.3     1  ZINC000469435497   -0.1000
      5 C5         -5.6067    1.8247   51.0829 C.ar    1  ZINC000469435497   -0.1500
      6 C6         -6.4550    1.2967   52.0297 C.ar    1  ZINC000469435497   -0.0700
      7 C7         -7.7822    1.7060   52.0768 C.ar    1  ZINC000469435497    0.1100
      8 N8         -8.6504    1.1726   53.0384 N.am    1  ZINC000469435497   -0.6600
      9 C9         -9.1762   -0.0560   52.8639 C.2     1  ZINC000469435497    0.5100
     10 O10        -8.8980   -0.6998   51.8743 O.2     1  ZINC000469435497   -0.5200
     11 C11       -10.1101   -0.6299   53.8981 C.3     1  ZINC000469435497    0.1000
     12 N12        -9.7667   -0.0936   55.2174 N.am    1  ZINC000469435497   -0.7200
     13 C13       -10.0771   -0.7893   56.3292 C.2     1  ZINC000469435497    0.5700
     14 O14       -10.6433   -1.8609   56.2373 O.2     1  ZINC000469435497   -0.5300
     15 C15        -9.7288   -0.2489   57.6606 C.ar    1  ZINC000469435497   -0.1400
     16 C16        -8.9053    0.8724   57.7693 C.ar    1  ZINC000469435497   -0.0800
     17 C17        -8.5859    1.3693   59.0148 C.ar    1  ZINC000469435497   -0.1100
     18 C18        -9.0776    0.7620   60.1598 C.ar    1  ZINC000469435497   -0.0700
     19 C19        -8.8725    1.1138   61.6183 C.3     1  ZINC000469435497   -0.0900
     20 C20        -9.9959    0.3734   62.3744 C.3     1  ZINC000469435497   -0.1200
     21 C21       -10.2932   -0.8198   61.4418 C.3     1  ZINC000469435497   -0.0800
     22 C22        -9.8948   -0.3505   60.0586 C.ar    1  ZINC000469435497   -0.1100
     23 C23       -10.2262   -0.8536   58.8149 C.ar    1  ZINC000469435497   -0.0400
     24 C24        -8.2426    2.6468   51.1657 C.ar    1  ZINC000469435497   -0.1000
     25 C25        -7.3906    3.1704   50.2161 C.ar    1  ZINC000469435497   -0.1200
     26 C26        -6.0606    2.7613   50.1627 C.ar    1  ZINC000469435497    0.1000
     27 O27        -5.0678    3.1321   49.3067 O.3     1  ZINC000469435497   -0.3000
     28 H28        -3.9625    4.2082   51.5010 H       1  ZINC000469435497    0.0600
     29 H29        -2.2992    3.6729   51.1617 H       1  ZINC000469435497    0.0800
     30 H30        -3.1028    4.8267   50.0703 H       1  ZINC000469435497    0.0700
     31 H31        -1.8618    2.0772   49.2597 H       1  ZINC000469435497    0.0800
     32 H32        -3.2075    1.5732   48.2093 H       1  ZINC000469435497    0.0700
     33 H33        -2.6067    3.2474   48.1443 H       1  ZINC000469435497    0.0700
     34 H34        -3.9924    0.6487   50.2578 H       1  ZINC000469435497    0.0900
     35 H35        -3.5488    1.6111   51.7067 H       1  ZINC000469435497    0.0900
     36 H36        -6.0897    0.5648   52.7349 H       1  ZINC000469435497    0.1400
     37 H37        -8.8729    1.6874   53.8299 H       1  ZINC000469435497    0.4200
     38 H38       -11.1364   -0.3582   53.6514 H       1  ZINC000469435497    0.1100
     39 H39       -10.0147   -1.7156   53.9111 H       1  ZINC000469435497    0.1100
     40 H40        -9.3159    0.7622   55.2908 H       1  ZINC000469435497    0.4100
     41 H41        -8.5192    1.3493   56.8805 H       1  ZINC000469435497    0.1300
     42 H42        -7.9482    2.2370   59.0991 H       1  ZINC000469435497    0.1300
     43 H43        -7.8963    0.7671   61.9573 H       1  ZINC000469435497    0.0900
     44 H44        -8.9642    2.1901   61.7642 H       1  ZINC000469435497    0.0800
     45 H45        -9.6455    0.0272   63.3468 H       1  ZINC000469435497    0.0800
     46 H46       -10.8746    1.0093   62.4821 H       1  ZINC000469435497    0.0700
     47 H47        -9.6983   -1.6852   61.7335 H       1  ZINC000469435497    0.0800
     48 H48       -11.3552   -1.0640   61.4670 H       1  ZINC000469435497    0.0800
     49 H49       -10.8685   -1.7183   58.7367 H       1  ZINC000469435497    0.1400
     50 H50        -9.2727    2.9698   51.2005 H       1  ZINC000469435497    0.1400
     51 H51        -7.7565    3.9016   49.5106 H       1  ZINC000469435497    0.1300
@<TRIPOS>BOND
     1     1     2    1
     2     1    28    1
     3     1    29    1
     4     1    30    1
     5     2    27    1
     6     2     3    1
     7     2     4    1
     8     3    31    1
     9     3    32    1
    10     3    33    1
    11     4     5    1
    12     4    34    1
    13     4    35    1
    14     5    26   ar
    15     5     6   ar
    16     6     7   ar
    17     6    36    1
    18     7     8    1
    19     7    24   ar
    20     8     9   am
    21     8    37    1
    22     9    10    2
    23     9    11    1
    24    11    12    1
    25    11    38    1
    26    11    39    1
    27    12    13   am
    28    12    40    1
    29    13    14    2
    30    13    15    1
    31    15    23   ar
    32    15    16   ar
    33    16    17   ar
    34    16    41    1
    35    17    18   ar
    36    17    42    1
    37    18    22   ar
    38    18    19    1
    39    19    20    1
    40    19    43    1
    41    19    44    1
    42    20    21    1
    43    20    45    1
    44    20    46    1
    45    21    22    1
    46    21    47    1
    47    21    48    1
    48    22    23   ar
    49    23    49    1
    50    24    25   ar
    51    24    50    1
    52    25    26   ar
    53    25    51    1
    54    26    27    1
@<TRIPOS>SUBSTRUCTURE
     1 ZINC000469435497        1 TEMP              0 ****  ****    0 ROOT


##########                                Name:    ZINC000129637895
##########                DOCK_Rotatable_Bonds:                   7
##########                         Heavy_Atoms:                  26
##########                    Molecular_Weight:             374.464
##########                DOCK_Rotatable_Bonds:                   7
##########                       Formal_Charge:        -5.51343e-07
##########                     HBond_Acceptors:                   8
##########                        HBond_Donors:                   1
##########                         Heavy_Atoms:                  26
##########                          Grid_Score:          -29.908192
##########                     Grid_vdw_energy:          -29.017635
##########                      Grid_es_energy:           -0.890556
##########           Internal_energy_repulsive:           21.060276

@<TRIPOS>MOLECULE
ZINC000129637895
 48 50 1 0 0
SMALL
USER_CHARGES


@<TRIPOS>ATOM
      1 C1         -6.4162    4.0450   57.2558 C.3     1  ZINC000129637895   -0.1500
      2 C2         -5.9755    2.6414   56.8356 C.3     1  ZINC000129637895   -0.0500
      3 C3         -7.1516    1.7022   56.9105 C.2     1  ZINC000129637895    0.0300
      4 C4         -8.0022    1.5147   55.8854 C.2     1  ZINC000129637895   -0.0200
      5 N5         -7.9345    2.1346   54.6384 N.am    1  ZINC000129637895   -0.5900
      6 C6         -8.3987    1.4995   53.5441 C.2     1  ZINC000129637895    0.5000
      7 O7         -8.8772    0.3881   53.6445 O.2     1  ZINC000129637895   -0.4800
      8 C8         -8.3246    2.1623   52.2089 C.2     1  ZINC000129637895    0.5200
      9 O9         -9.2074    2.9169   51.8560 O.2     1  ZINC000129637895   -0.5100
     10 N10        -7.2773    1.9231   51.3949 N.am    1  ZINC000129637895   -0.5800
     11 C11        -7.1815    2.5706   50.0779 C.3     1  ZINC000129637895    0.0800
     12 C12        -5.8004    3.2228   49.9553 C.3     1  ZINC000129637895    0.0400
     13 N13        -4.7626    2.2203   50.2316 N.3     1  ZINC000129637895   -0.4900
     14 C14        -3.4897    2.7327   49.9709 C.ar    1  ZINC000129637895    0.1500
     15 C15        -2.6095    2.0287   49.1585 C.ar    1  ZINC000129637895   -0.2100
     16 C16        -1.3506    2.5360   48.9005 C.ar    1  ZINC000129637895   -0.0500
     17 C17        -0.9635    3.7435   49.4495 C.ar    1  ZINC000129637895   -0.2300
     18 C18        -1.8387    4.4512   50.2619 C.ar    1  ZINC000129637895    0.1500
     19 O19        -1.4564    5.6389   50.8006 O.3     1  ZINC000129637895   -0.3200
     20 C20        -2.4466    6.3711   51.5254 C.3     1  ZINC000129637895    0.0300
     21 C21        -3.1043    3.9487   50.5187 C.ar    1  ZINC000129637895   -0.1700
     22 C22        -4.8572    1.7215   51.6100 C.3     1  ZINC000129637895    0.0400
     23 C23        -6.1968    1.0124   51.8029 C.3     1  ZINC000129637895    0.1100
     24 S24        -9.2166    0.3456   56.3984 S.3     1  ZINC000129637895    0.2400
     25 C25        -8.4672    0.2243   57.9301 C.2     1  ZINC000129637895   -0.0300
     26 N26        -7.4311    0.9906   57.9839 N.2     1  ZINC000129637895   -0.4500
     27 H27        -7.2031    4.3942   56.5873 H       1  ZINC000129637895    0.0600
     28 H28        -6.7938    4.0165   58.2779 H       1  ZINC000129637895    0.0500
     29 H29        -5.5654    4.7243   57.2017 H       1  ZINC000129637895    0.0700
     30 H30        -5.5977    2.6699   55.8136 H       1  ZINC000129637895    0.0900
     31 H31        -5.1886    2.2922   57.5042 H       1  ZINC000129637895    0.0700
     32 H32        -7.5533    3.0229   54.5584 H       1  ZINC000129637895    0.4300
     33 H33        -7.3049    1.8242   49.2931 H       1  ZINC000129637895    0.0900
     34 H34        -7.9556    3.3326   49.9872 H       1  ZINC000129637895    0.1400
     35 H35        -5.6703    3.6122   48.9456 H       1  ZINC000129637895    0.1000
     36 H36        -5.7183    4.0387   50.6734 H       1  ZINC000129637895    0.0500
     37 H37        -2.9094    1.0844   48.7289 H       1  ZINC000129637895    0.1300
     38 H38        -0.6676    1.9875   48.2688 H       1  ZINC000129637895    0.1300
     39 H39         0.0216    4.1370   49.2465 H       1  ZINC000129637895    0.1300
     40 H40        -3.2818    6.6044   50.8651 H       1  ZINC000129637895    0.0600
     41 H41        -2.8021    5.7707   52.3627 H       1  ZINC000129637895    0.0600
     42 H42        -2.0110    7.2970   51.9013 H       1  ZINC000129637895    0.1000
     43 H43        -3.7866    4.4982   51.1503 H       1  ZINC000129637895    0.1300
     44 H44        -4.0432    1.0221   51.8003 H       1  ZINC000129637895    0.1000
     45 H45        -4.7884    2.5582   52.3052 H       1  ZINC000129637895    0.0500
     46 H46        -6.3201    0.7418   52.8515 H       1  ZINC000129637895    0.1100
     47 H47        -6.2288    0.1156   51.1842 H       1  ZINC000129637895    0.0900
     48 H48        -8.8098   -0.4073   58.7363 H       1  ZINC000129637895    0.2000
@<TRIPOS>BOND
     1     1     2    1
     2     1    27    1
     3     1    28    1
     4     1    29    1
     5     2     3    1
     6     2    30    1
     7     2    31    1
     8     3    26    1
     9     3     4    2
    10     4     5    1
    11     4    24    1
    12     5     6   am
    13     5    32    1
    14     6     7    2
    15     6     8    1
    16     8     9    2
    17     8    10   am
    18    10    23    1
    19    10    11    1
    20    11    12    1
    21    11    33    1
    22    11    34    1
    23    12    13    1
    24    12    35    1
    25    12    36    1
    26    13    14    1
    27    13    22    1
    28    14    21   ar
    29    14    15   ar
    30    15    16   ar
    31    15    37    1
    32    16    17   ar
    33    16    38    1
    34    17    18   ar
    35    17    39    1
    36    18    19    1
    37    18    21   ar
    38    19    20    1
    39    20    40    1
    40    20    41    1
    41    20    42    1
    42    21    43    1
    43    22    23    1
    44    22    44    1
    45    22    45    1
    46    23    46    1
    47    23    47    1
    48    24    25    1
    49    25    26    2
    50    25    48    1
@<TRIPOS>SUBSTRUCTURE
     1 ZINC000129637895        1 TEMP              0 ****  ****    0 ROOT


##########                                Name:    ZINC000842947763
##########                DOCK_Rotatable_Bonds:                   7
##########                         Heavy_Atoms:                  24
##########                    Molecular_Weight:             365.373
##########                DOCK_Rotatable_Bonds:                   7
##########                       Formal_Charge:          0.00999997
##########                     HBond_Acceptors:                   9
##########                        HBond_Donors:                   0
##########                         Heavy_Atoms:                  24
##########                          Grid_Score:          -29.890736
##########                     Grid_vdw_energy:          -29.568306
##########                      Grid_es_energy:           -0.322430
##########           Internal_energy_repulsive:           31.773916

@<TRIPOS>MOLECULE
ZINC000842947763
 42 43 1 0 0
SMALL
USER_CHARGES


@<TRIPOS>ATOM
      1 C1         -1.7566    3.4136   51.9082 C.3     1  ZINC000842947763   -0.1600
      2 C2         -0.7900    3.5876   50.7352 C.3     1  ZINC000842947763   -0.1000
      3 H3         -0.5848    4.6478   50.5876 H       1  ZINC000842947763    0.1000
      4 C4         -1.4186    3.0083   49.4661 C.3     1  ZINC000842947763    0.0800
      5 O5         -2.8045    3.4317   49.3759 O.3     1  ZINC000842947763   -0.3500
      6 C6         -3.6846    2.5421   48.8757 C.2     1  ZINC000842947763    0.5200
      7 O7         -3.4855    2.0355   47.7893 O.2     1  ZINC000842947763   -0.5100
      8 C8         -4.8888    2.1839   49.6463 C.ar    1  ZINC000842947763   -0.1600
      9 C9         -5.1265    0.8529   50.0034 C.ar    1  ZINC000842947763   -0.0200
     10 C10        -6.2506    0.5257   50.7219 C.ar    1  ZINC000842947763   -0.1700
     11 C11        -7.1627    1.5185   51.1000 C.ar    1  ZINC000842947763    0.2000
     12 C12        -6.9176    2.8386   50.7403 C.ar    1  ZINC000842947763   -0.1500
     13 C13        -5.7990    3.1732   50.0305 C.ar    1  ZINC000842947763   -0.0100
     14 C14        -8.0462    3.6962   51.2693 C.3     1  ZINC000842947763   -0.0800
     15 C15        -8.9793    2.7045   51.9831 C.3     1  ZINC000842947763    0.1100
     16 N16        -8.3447    1.3941   51.8202 N.am    1  ZINC000842947763   -0.9400
     17 S17        -8.9491   -0.0306   52.4091 S.o2    1  ZINC000842947763    2.6100
     18 C18        -9.0343    0.2212   54.2035 C.3     1  ZINC000842947763   -0.6700
     19 O19       -10.2549   -0.1132   51.8546 O.2     1  ZINC000842947763   -0.9300
     20 O20        -7.9544   -0.9930   52.0874 O.2     1  ZINC000842947763   -0.9400
     21 C21         0.5172    2.8524   51.0380 C.3     1  ZINC000842947763   -0.1600
     22 C22         1.5604    3.2091   49.9771 C.3     1  ZINC000842947763    0.4600
     23 F23         2.8431    3.0124   50.4997 F       1  ZINC000842947763   -0.1800
     24 F24         1.3833    2.3917   48.8556 F       1  ZINC000842947763   -0.1800
     25 F25         1.4086    4.5493   49.6059 F       1  ZINC000842947763   -0.1800
     26 H26        -1.3727    3.9475   52.7776 H       1  ZINC000842947763    0.0700
     27 H27        -2.7330    3.8151   51.6371 H       1  ZINC000842947763    0.0700
     28 H28        -1.8527    2.3541   52.1459 H       1  ZINC000842947763    0.0600
     29 H29        -0.8718    3.3663   48.5938 H       1  ZINC000842947763    0.0800
     30 H30        -1.3727    1.9198   49.5022 H       1  ZINC000842947763    0.0800
     31 H31        -4.4269    0.0826   49.7141 H       1  ZINC000842947763    0.1500
     32 H32        -6.4320   -0.5030   50.9966 H       1  ZINC000842947763    0.1500
     33 H33        -5.6216    4.2032   49.7585 H       1  ZINC000842947763    0.1400
     34 H34        -7.6646    4.4348   51.9743 H       1  ZINC000842947763    0.1000
     35 H35        -8.5686    4.1868   50.4480 H       1  ZINC000842947763    0.1000
     36 H36        -9.0609    2.9562   53.0405 H       1  ZINC000842947763    0.1000
     37 H37        -9.9640    2.7083   51.5156 H       1  ZINC000842947763    0.0900
     38 H38        -9.6916    1.0631   54.4214 H       1  ZINC000842947763    0.1300
     39 H39        -9.4265   -0.6782   54.6784 H       1  ZINC000842947763    0.1400
     40 H40        -8.0364    0.4300   54.5890 H       1  ZINC000842947763    0.1300
     41 H41         0.8823    3.1502   52.0209 H       1  ZINC000842947763    0.1200
     42 H42         0.3403    1.7769   51.0265 H       1  ZINC000842947763    0.1100
@<TRIPOS>BOND
     1     1     2    1
     2     1    26    1
     3     1    27    1
     4     1    28    1
     5     2     3    1
     6     2     4    1
     7     2    21    1
     8     4     5    1
     9     4    29    1
    10     4    30    1
    11     5     6    1
    12     6     7    2
    13     6     8    1
    14     8    13   ar
    15     8     9   ar
    16     9    10   ar
    17     9    31    1
    18    10    11   ar
    19    10    32    1
    20    11    16    1
    21    11    12   ar
    22    12    13   ar
    23    12    14    1
    24    13    33    1
    25    14    15    1
    26    14    34    1
    27    14    35    1
    28    15    16    1
    29    15    36    1
    30    15    37    1
    31    16    17   am
    32    17    18    1
    33    17    19    2
    34    17    20    2
    35    18    38    1
    36    18    39    1
    37    18    40    1
    38    21    22    1
    39    21    41    1
    40    21    42    1
    41    22    23    1
    42    22    24    1
    43    22    25    1
@<TRIPOS>SUBSTRUCTURE
     1 ZINC000842947763        1 TEMP              0 ****  ****    0 ROOT


##########                                Name:    ZINC000646817380
##########                DOCK_Rotatable_Bonds:                   6
##########                         Heavy_Atoms:                  25
##########                    Molecular_Weight:             347.457
##########                DOCK_Rotatable_Bonds:                   6
##########                       Formal_Charge:           0.0199991
##########                     HBond_Acceptors:                   6
##########                        HBond_Donors:                   1
##########                         Heavy_Atoms:                  25
##########                          Grid_Score:          -29.886456
##########                     Grid_vdw_energy:          -29.139143
##########                      Grid_es_energy:           -0.747313
##########           Internal_energy_repulsive:           59.408417

@<TRIPOS>MOLECULE
ZINC000646817380
 54 56 1 0 0
SMALL
USER_CHARGES


@<TRIPOS>ATOM
      1 C1        -15.4109   -3.3250   55.2696 C.3     1  ZINC000646817380   -0.1500
      2 C2        -14.8701   -3.9949   56.5344 C.3     1  ZINC000646817380   -0.0100
      3 C3        -14.3268   -5.3817   56.1845 C.3     1  ZINC000646817380   -0.1500
      4 C4        -13.7626   -3.1532   57.1144 C.2     1  ZINC000646817380   -0.0100
      5 C5        -12.9371   -2.3247   56.4354 C.2     1  ZINC000646817380   -0.2200
      6 C6        -12.0917   -1.7840   57.4408 C.2     1  ZINC000646817380    0.2400
      7 N7        -11.0578   -0.8671   57.2605 N.am    1  ZINC000646817380   -0.6100
      8 C8        -10.3260   -0.8907   56.1290 C.2     1  ZINC000646817380    0.5200
      9 O9        -10.5681   -1.7095   55.2666 O.2     1  ZINC000646817380   -0.4900
     10 C10        -9.2166    0.0909   55.9365 C.2     1  ZINC000646817380    0.5300
     11 O11        -8.6055    0.5120   56.8968 O.2     1  ZINC000646817380   -0.5100
     12 N12        -8.8942    0.5089   54.6964 N.am    1  ZINC000646817380   -0.5800
     13 C13        -9.5489    0.0822   53.4512 C.3     1  ZINC000646817380    0.1000
     14 C14        -8.8316    0.7985   52.2876 C.3     1  ZINC000646817380   -0.1300
     15 C15        -7.4486    1.1511   52.8963 C.3     1  ZINC000646817380   -0.1000
     16 H16        -6.7702    0.2994   52.8443 H       1  ZINC000646817380    0.1000
     17 C17        -6.8418    2.3747   52.2069 C.3     1  ZINC000646817380   -0.0700
     18 H18        -7.6340    3.0276   51.8405 H       1  ZINC000646817380    0.0800
     19 C19        -5.9377    3.1428   53.1930 C.3     1  ZINC000646817380   -0.1300
     20 C20        -4.7561    3.6348   52.3208 C.3     1  ZINC000646817380   -0.1300
     21 C21        -4.5224    2.4437   51.3586 C.3     1  ZINC000646817380   -0.1200
     22 C22        -5.9430    1.9303   51.0397 C.3     1  ZINC000646817380   -0.0700
     23 C23        -5.9372    0.4039   50.9344 C.3     1  ZINC000646817380   -0.1600
     24 C24        -6.4405    2.5448   49.7298 C.3     1  ZINC000646817380   -0.1400
     25 C25        -7.8308    1.4746   54.3646 C.3     1  ZINC000646817380    0.0900
     26 N26       -12.4786   -2.3189   58.5693 N.2     1  ZINC000646817380   -0.3800
     27 O27       -13.4075   -3.0754   58.4050 O.3     1  ZINC000646817380    0.1100
     28 H28       -16.2118   -3.9338   54.8502 H       1  ZINC000646817380    0.0700
     29 H29       -15.7979   -2.3370   55.5189 H       1  ZINC000646817380    0.0600
     30 H30       -14.6081   -3.2270   54.5388 H       1  ZINC000646817380    0.0600
     31 H31       -15.6728   -4.0930   57.2652 H       1  ZINC000646817380    0.1100
     32 H32       -13.5240   -5.2837   55.4537 H       1  ZINC000646817380    0.0600
     33 H33       -13.9415   -5.8590   57.0855 H       1  ZINC000646817380    0.0600
     34 H34       -15.1278   -5.9905   55.7650 H       1  ZINC000646817380    0.0700
     35 H35       -12.9235   -2.1216   55.3747 H       1  ZINC000646817380    0.1900
     36 H36       -10.8650   -0.2120   57.9493 H       1  ZINC000646817380    0.4300
     37 H37        -9.4566   -0.9977   53.3350 H       1  ZINC000646817380    0.0800
     38 H38       -10.6010    0.3666   53.4692 H       1  ZINC000646817380    0.0800
     39 H39        -8.7182    0.1297   51.4343 H       1  ZINC000646817380    0.0900
     40 H40        -9.3688    1.7027   52.0015 H       1  ZINC000646817380    0.0800
     41 H41        -6.4738    3.9894   53.6219 H       1  ZINC000646817380    0.0700
     42 H42        -5.5803    2.4782   53.9798 H       1  ZINC000646817380    0.0800
     43 H43        -5.0327    4.5313   51.7659 H       1  ZINC000646817380    0.0700
     44 H44        -3.8728    3.8155   52.9334 H       1  ZINC000646817380    0.0700
     45 H45        -4.0257    2.7804   50.4486 H       1  ZINC000646817380    0.0700
     46 H46        -3.9365    1.6663   51.8489 H       1  ZINC000646817380    0.0700
     47 H47        -5.2703   -0.0098   51.6908 H       1  ZINC000646817380    0.0700
     48 H48        -6.9467    0.0250   51.0936 H       1  ZINC000646817380    0.0600
     49 H49        -5.5905    0.1094   49.9439 H       1  ZINC000646817380    0.0500
     50 H50        -5.7827    2.2439   48.9144 H       1  ZINC000646817380    0.0600
     51 H51        -7.4532    2.1965   49.5268 H       1  ZINC000646817380    0.0500
     52 H52        -6.4401    3.6313   49.8149 H       1  ZINC000646817380    0.0600
     53 H53        -8.2012    2.4967   54.4437 H       1  ZINC000646817380    0.0900
     54 H54        -6.9727    1.3293   55.0208 H       1  ZINC000646817380    0.1000
@<TRIPOS>BOND
     1     1     2    1
     2     1    28    1
     3     1    29    1
     4     1    30    1
     5     2     3    1
     6     2     4    1
     7     2    31    1
     8     3    32    1
     9     3    33    1
    10     3    34    1
    11     4    27    1
    12     4     5    2
    13     5     6    1
    14     5    35    1
    15     6     7    1
    16     6    26    2
    17     7     8   am
    18     7    36    1
    19     8     9    2
    20     8    10    1
    21    10    11    2
    22    10    12   am
    23    12    25    1
    24    12    13    1
    25    13    14    1
    26    13    37    1
    27    13    38    1
    28    14    15    1
    29    14    39    1
    30    14    40    1
    31    15    16    1
    32    15    17    1
    33    15    25    1
    34    17    18    1
    35    17    22    1
    36    17    19    1
    37    19    20    1
    38    19    41    1
    39    19    42    1
    40    20    21    1
    41    20    43    1
    42    20    44    1
    43    21    22    1
    44    21    45    1
    45    21    46    1
    46    22    23    1
    47    22    24    1
    48    23    47    1
    49    23    48    1
    50    23    49    1
    51    24    50    1
    52    24    51    1
    53    24    52    1
    54    25    53    1
    55    25    54    1
    56    26    27    1
@<TRIPOS>SUBSTRUCTURE
     1 ZINC000646817380        1 TEMP              0 ****  ****    0 ROOT


##########                                Name:    ZINC001436455587
##########                DOCK_Rotatable_Bonds:                   9
##########                         Heavy_Atoms:                  21
##########                    Molecular_Weight:             378.693
##########                DOCK_Rotatable_Bonds:                   9
##########                       Formal_Charge:          -0.0200001
##########                     HBond_Acceptors:                   5
##########                        HBond_Donors:                   1
##########                         Heavy_Atoms:                  21
##########                          Grid_Score:          -29.880131
##########                     Grid_vdw_energy:          -29.406679
##########                      Grid_es_energy:           -0.473452
##########           Internal_energy_repulsive:           13.666509

@<TRIPOS>MOLECULE
ZINC001436455587
 42 42 1 0 0
SMALL
USER_CHARGES


@<TRIPOS>ATOM
      1 C1        -11.6478    5.5529   47.5336 C.3     1  ZINC001436455587   -0.1500
      2 C2        -10.1949    5.1112   47.7196 C.3     1  ZINC001436455587   -0.1300
      3 C3         -9.4768    6.0961   48.6444 C.3     1  ZINC001436455587   -0.1400
      4 C4         -8.0235    5.6551   48.8293 C.3     1  ZINC001436455587    0.0800
      5 H5         -7.5237    5.6355   47.8607 H       1  ZINC001436455587    0.0700
      6 C6         -7.9898    4.2565   49.4489 C.3     1  ZINC001436455587    0.1200
      7 N7         -6.5982    3.8412   49.6417 N.am    1  ZINC001436455587   -0.7200
      8 C8         -6.2801    2.5315   49.6447 C.2     1  ZINC001436455587    0.5200
      9 O9         -7.1456    1.6969   49.4862 O.2     1  ZINC001436455587   -0.5100
     10 C10        -4.8488    2.1042   49.8449 C.3     1  ZINC001436455587    0.0600
     11 H11        -4.6408    1.2304   49.2274 H       1  ZINC001436455587    0.1000
     12 C12        -4.6224    1.7539   51.3169 C.3     1  ZINC001436455587   -0.1800
     13 O13        -3.9761    3.1715   49.4694 O.3     1  ZINC001436455587   -0.2700
     14 C14        -2.7848    2.8277   48.9121 C.ar    1  ZINC001436455587    0.1600
     15 C15        -2.7536    2.1663   47.6938 C.ar    1  ZINC001436455587   -0.2000
     16 C16        -1.5417    1.8179   47.1284 C.ar    1  ZINC001436455587   -0.0500
     17 C17        -0.3598    2.1281   47.7770 C.ar    1  ZINC001436455587   -0.0700
     18 Cl18        1.1611    1.6888   47.0646 Cl      1  ZINC001436455587   -0.0600
     19 C19        -0.3882    2.7886   48.9928 C.ar    1  ZINC001436455587   -0.0400
     20 C20        -1.5978    3.1434   49.5591 C.ar    1  ZINC001436455587   -0.1200
     21 Br21       -1.6366    4.0459   51.2204 Br      1  ZINC001436455587   -0.0100
     22 O22        -7.3526    6.5749   49.6929 O.3     1  ZINC001436455587   -0.3800
     23 C23        -7.3270    7.9177   49.2045 C.3     1  ZINC001436455587    0.0200
     24 H24       -12.1483    5.5732   48.5019 H       1  ZINC001436455587    0.0500
     25 H25       -11.6711    6.5492   47.0918 H       1  ZINC001436455587    0.0600
     26 H26       -12.1595    4.8513   46.8748 H       1  ZINC001436455587    0.0600
     27 H27       -10.1717    4.1150   48.1615 H       1  ZINC001436455587    0.0600
     28 H28        -9.6945    5.0910   46.7515 H       1  ZINC001436455587    0.0700
     29 H29        -9.5006    7.0924   48.2029 H       1  ZINC001436455587    0.0800
     30 H30        -9.9766    6.1157   49.6127 H       1  ZINC001436455587    0.0800
     31 H31        -8.5007    4.2732   50.4116 H       1  ZINC001436455587    0.0800
     32 H32        -8.4904    3.5524   48.7842 H       1  ZINC001436455587    0.0800
     33 H33        -5.9057    4.5088   49.7673 H       1  ZINC001436455587    0.4000
     34 H34        -3.5871    1.4449   51.4617 H       1  ZINC001436455587    0.0800
     35 H35        -4.8304    2.6277   51.9345 H       1  ZINC001436455587    0.0800
     36 H36        -5.2880    0.9397   51.6033 H       1  ZINC001436455587    0.0800
     37 H37        -3.6758    1.9231   47.1872 H       1  ZINC001436455587    0.1500
     38 H38        -1.5172    1.3028   46.1796 H       1  ZINC001436455587    0.1400
     39 H39         0.5356    3.0302   49.4975 H       1  ZINC001436455587    0.1500
     40 H40        -8.3434    8.3092   49.1645 H       1  ZINC001436455587    0.0500
     41 H41        -6.7256    8.5354   49.8715 H       1  ZINC001436455587    0.0900
     42 H42        -6.8922    7.9324   48.2051 H       1  ZINC001436455587    0.0400
@<TRIPOS>BOND
     1     1     2    1
     2     1    24    1
     3     1    25    1
     4     1    26    1
     5     2     3    1
     6     2    27    1
     7     2    28    1
     8     3     4    1
     9     3    29    1
    10     3    30    1
    11     4     5    1
    12     4     6    1
    13     4    22    1
    14     6     7    1
    15     6    31    1
    16     6    32    1
    17     7     8   am
    18     7    33    1
    19     8     9    2
    20     8    10    1
    21    10    11    1
    22    10    12    1
    23    10    13    1
    24    12    34    1
    25    12    35    1
    26    12    36    1
    27    13    14    1
    28    14    20   ar
    29    14    15   ar
    30    15    16   ar
    31    15    37    1
    32    16    17   ar
    33    16    38    1
    34    17    18    1
    35    17    19   ar
    36    19    20   ar
    37    19    39    1
    38    20    21    1
    39    22    23    1
    40    23    40    1
    41    23    41    1
    42    23    42    1
@<TRIPOS>SUBSTRUCTURE
     1 ZINC001436455587        1 TEMP              0 ****  ****    0 ROOT


##########                                Name:    ZINC000482139334
##########                DOCK_Rotatable_Bonds:                   4
##########                         Heavy_Atoms:                  26
##########                    Molecular_Weight:             348.376
##########                DOCK_Rotatable_Bonds:                   4
##########                       Formal_Charge:           0.0300002
##########                     HBond_Acceptors:                   5
##########                        HBond_Donors:                   1
##########                         Heavy_Atoms:                  26
##########                          Grid_Score:          -29.876463
##########                     Grid_vdw_energy:          -30.024376
##########                      Grid_es_energy:            0.147913
##########           Internal_energy_repulsive:            9.541953

@<TRIPOS>MOLECULE
ZINC000482139334
 43 47 1 0 0
SMALL
USER_CHARGES


@<TRIPOS>ATOM
      1 O1         -6.6185   -0.4546   52.4086 O.2     1  ZINC000482139334   -0.4800
      2 C2         -7.1111    0.3863   51.6869 C.2     1  ZINC000482139334    0.5500
      3 N3         -8.3255    0.8946   51.9757 N.am    1  ZINC000482139334   -0.6100
      4 C4         -9.0140    0.4519   53.0943 C.2     1  ZINC000482139334    0.4300
      5 N5         -8.5720    0.4939   54.3250 N.2     1  ZINC000482139334   -0.4800
      6 C6         -9.5243   -0.0268   55.1427 C.2     1  ZINC000482139334    0.0400
      7 C7         -9.4344   -0.1696   56.6167 C.ar    1  ZINC000482139334   -0.0500
      8 C8         -8.5635    0.6370   57.3456 C.ar    1  ZINC000482139334   -0.0800
      9 C9         -8.4841    0.5005   58.7170 C.ar    1  ZINC000482139334   -0.1300
     10 C10        -9.2665   -0.4353   59.3688 C.ar    1  ZINC000482139334   -0.0800
     11 C11       -10.1333   -1.2403   58.6521 C.ar    1  ZINC000482139334   -0.1600
     12 C12       -10.2263   -1.1087   57.2793 C.ar    1  ZINC000482139334    0.1300
     13 F13       -11.0731   -1.8951   56.5794 F       1  ZINC000482139334   -0.1200
     14 C14       -10.5704   -0.3908   54.3640 C.2     1  ZINC000482139334   -0.0600
     15 O15       -10.2443   -0.0837   53.0913 O.3     1  ZINC000482139334   -0.1800
     16 C16        -6.3626    0.8677   50.4706 C.3     1  ZINC000482139334   -0.1800
     17 H17        -5.9858    0.0863   49.8106 H       1  ZINC000482139334    0.1400
     18 C18        -6.8290    2.1752   49.8247 C.3     1  ZINC000482139334   -0.1200
     19 C19        -5.5247    2.1322   50.6145 C.3     1  ZINC000482139334   -0.0500
     20 C20        -5.3910    2.8497   51.9681 C.3     1  ZINC000482139334   -0.0700
     21 C21        -4.2749    3.8792   51.6834 C.3     1  ZINC000482139334   -0.0900
     22 C22        -3.4619    3.2823   50.5538 C.ar    1  ZINC000482139334   -0.0800
     23 C23        -2.1916    3.5946   50.1010 C.ar    1  ZINC000482139334   -0.1100
     24 C24        -1.6435    2.9066   49.0359 C.ar    1  ZINC000482139334   -0.1100
     25 C25        -2.3655    1.9024   48.4191 C.ar    1  ZINC000482139334   -0.1200
     26 C26        -3.6331    1.5886   48.8690 C.ar    1  ZINC000482139334   -0.1000
     27 C27        -4.1851    2.2762   49.9367 C.ar    1  ZINC000482139334   -0.0700
     28 H28        -8.7178    1.5701   51.4007 H       1  ZINC000482139334    0.4400
     29 H29        -7.9511    1.3681   56.8385 H       1  ZINC000482139334    0.1300
     30 H30        -7.8090    1.1259   59.2823 H       1  ZINC000482139334    0.1400
     31 H31        -9.2002   -0.5382   60.4419 H       1  ZINC000482139334    0.1400
     32 H32       -10.7415   -1.9699   59.1662 H       1  ZINC000482139334    0.1400
     33 H33       -11.4940   -0.8395   54.6990 H       1  ZINC000482139334    0.2200
     34 H34        -6.7582    2.2542   48.7399 H       1  ZINC000482139334    0.1200
     35 H35        -7.6771    2.6872   50.2795 H       1  ZINC000482139334    0.1100
     36 H36        -6.3215    3.3503   52.2356 H       1  ZINC000482139334    0.0800
     37 H37        -5.0858    2.1524   52.7484 H       1  ZINC000482139334    0.0900
     38 H38        -4.7080    4.8308   51.3756 H       1  ZINC000482139334    0.0800
     39 H39        -3.6514    4.0148   52.5671 H       1  ZINC000482139334    0.0800
     40 H40        -1.6270    4.3795   50.5822 H       1  ZINC000482139334    0.1200
     41 H41        -0.6522    3.1534   48.6855 H       1  ZINC000482139334    0.1300
     42 H42        -1.9390    1.3637   47.5858 H       1  ZINC000482139334    0.1300
     43 H43        -4.1964    0.8040   48.3857 H       1  ZINC000482139334    0.1200
@<TRIPOS>BOND
     1     1     2    2
     2     2     3   am
     3     2    16    1
     4     3     4    1
     5     3    28    1
     6     4    15    1
     7     4     5    2
     8     5     6    1
     9     6     7    1
    10     6    14    2
    11     7    12   ar
    12     7     8   ar
    13     8     9   ar
    14     8    29    1
    15     9    10   ar
    16     9    30    1
    17    10    11   ar
    18    10    31    1
    19    11    12   ar
    20    11    32    1
    21    12    13    1
    22    14    15    1
    23    14    33    1
    24    16    17    1
    25    16    19    1
    26    16    18    1
    27    18    19    1
    28    18    34    1
    29    18    35    1
    30    19    27    1
    31    19    20    1
    32    20    21    1
    33    20    36    1
    34    20    37    1
    35    21    22    1
    36    21    38    1
    37    21    39    1
    38    22    27   ar
    39    22    23   ar
    40    23    24   ar
    41    23    40    1
    42    24    25   ar
    43    24    41    1
    44    25    26   ar
    45    25    42    1
    46    26    27   ar
    47    26    43    1
@<TRIPOS>SUBSTRUCTURE
     1 ZINC000482139334        1 TEMP              0 ****  ****    0 ROOT


##########                                Name:    ZINC001707162141
##########                DOCK_Rotatable_Bonds:                   9
##########                         Heavy_Atoms:                  25
##########                    Molecular_Weight:               344.5
##########                DOCK_Rotatable_Bonds:                   9
##########                       Formal_Charge:          -0.0299999
##########                     HBond_Acceptors:                   5
##########                        HBond_Donors:                   1
##########                         Heavy_Atoms:                  25
##########                          Grid_Score:          -29.876432
##########                     Grid_vdw_energy:          -30.344305
##########                      Grid_es_energy:            0.467873
##########           Internal_energy_repulsive:           81.605766

@<TRIPOS>MOLECULE
ZINC001707162141
 57 59 1 0 0
SMALL
USER_CHARGES


@<TRIPOS>ATOM
      1 C1         -6.0171   -0.0412   49.9594 C.3     1  ZINC001707162141   -0.1800
      2 C2         -5.6070    1.2028   50.7500 C.3     1  ZINC001707162141    0.1700
      3 H3         -4.7198    0.9803   51.3430 H       1  ZINC001707162141    0.1000
      4 N4         -5.3110    2.2995   49.8186 N.3     1  ZINC001707162141   -0.6400
      5 C5         -3.9154    2.2415   49.3636 C.3     1  ZINC001707162141    0.0700
      6 C6         -3.0036    2.8373   50.4380 C.3     1  ZINC001707162141    0.1500
      7 H7         -3.0290    2.2090   51.3284 H       1  ZINC001707162141    0.0700
      8 C8         -3.4792    4.2504   50.7894 C.3     1  ZINC001707162141   -0.1200
      9 C9         -2.4851    4.8925   51.7597 C.3     1  ZINC001707162141   -0.0900
     10 H10        -2.4061    4.2790   52.6572 H       1  ZINC001707162141    0.0700
     11 C11        -2.9748    6.2913   52.1399 C.3     1  ZINC001707162141   -0.1500
     12 C12        -1.1123    4.9971   51.0913 C.3     1  ZINC001707162141   -0.1300
     13 C13        -0.6099    3.5924   50.7434 C.3     1  ZINC001707162141    0.1100
     14 N14        -1.6275    2.9144   49.9289 N.am    1  ZINC001707162141   -0.6100
     15 C15        -1.3050    2.3738   48.7371 C.2     1  ZINC001707162141    0.5100
     16 O16        -2.1541    1.8168   48.0742 O.2     1  ZINC001707162141   -0.4800
     17 C17         0.1108    2.4617   48.2283 C.3     1  ZINC001707162141   -0.1400
     18 C18         0.2056    1.7767   46.8635 C.3     1  ZINC001707162141   -0.0900
     19 C19         1.6509    1.8321   46.3644 C.3     1  ZINC001707162141   -0.0900
     20 C20         2.5614    1.1064   47.3569 C.3     1  ZINC001707162141   -0.1500
     21 C21         3.5575    0.0923   46.7908 C.3     1  ZINC001707162141   -0.1800
     22 C22         2.3290   -0.3917   47.5637 C.3     1  ZINC001707162141   -0.1800
     23 C23        -6.7332    1.6106   51.6646 C.ar    1  ZINC001707162141    0.3500
     24 N24        -7.6579    2.4351   51.2151 N.ar    1  ZINC001707162141   -0.5000
     25 C25        -8.6646    2.8108   51.9876 C.ar    1  ZINC001707162141    0.1500
     26 C26        -8.7314    2.3341   53.2873 C.ar    1  ZINC001707162141   -0.2400
     27 C27        -7.7374    1.4733   53.7256 C.ar    1  ZINC001707162141    0.1500
     28 N28        -6.7642    1.1374   52.8943 N.ar    1  ZINC001707162141   -0.5200
     29 H29        -5.2026   -0.3361   49.2978 H       1  ZINC001707162141    0.0600
     30 H30        -6.2368   -0.8549   50.6504 H       1  ZINC001707162141    0.0600
     31 H31        -6.9042    0.1814   49.3664 H       1  ZINC001707162141    0.0600
     32 H32        -5.9473    2.2906   49.0356 H       1  ZINC001707162141    0.3300
     33 H33        -3.6348    1.2038   49.1835 H       1  ZINC001707162141    0.1000
     34 H34        -3.8102    2.8118   48.4407 H       1  ZINC001707162141    0.0200
     35 H35        -3.5401    4.8501   49.8812 H       1  ZINC001707162141    0.0700
     36 H36        -4.4621    4.1976   51.2576 H       1  ZINC001707162141    0.0700
     37 H37        -3.0533    6.9051   51.2426 H       1  ZINC001707162141    0.0500
     38 H38        -3.9525    6.2170   52.6160 H       1  ZINC001707162141    0.0600
     39 H39        -2.2674    6.7482   52.8319 H       1  ZINC001707162141    0.0600
     40 H40        -0.4107    5.4758   51.7744 H       1  ZINC001707162141    0.0700
     41 H41        -1.1955    5.5898   50.1803 H       1  ZINC001707162141    0.0700
     42 H42        -0.4397    3.0278   51.6600 H       1  ZINC001707162141    0.0600
     43 H43         0.3199    3.6662   50.1793 H       1  ZINC001707162141    0.0800
     44 H44         0.3973    3.5087   48.1300 H       1  ZINC001707162141    0.0800
     45 H45         0.7808    1.9660   48.9309 H       1  ZINC001707162141    0.0800
     46 H46        -0.1071    0.7366   46.9564 H       1  ZINC001707162141    0.0700
     47 H47        -0.4438    2.2893   46.1538 H       1  ZINC001707162141    0.0700
     48 H48         1.7175    1.3487   45.3898 H       1  ZINC001707162141    0.0600
     49 H49         1.9652    2.8721   46.2764 H       1  ZINC001707162141    0.0600
     50 H50         2.8747    1.6911   48.2218 H       1  ZINC001707162141    0.1000
     51 H51         3.5642   -0.0576   45.7112 H       1  ZINC001707162141    0.0900
     52 H52         4.5265    0.0101   47.2831 H       1  ZINC001707162141    0.0900
     53 H53         2.4898   -0.7925   48.5645 H       1  ZINC001707162141    0.0900
     54 H54         1.5275   -0.8602   46.9926 H       1  ZINC001707162141    0.0900
     55 H55        -9.4213    3.4835   51.6118 H       1  ZINC001707162141    0.1600
     56 H56        -9.5387    2.6261   53.9426 H       1  ZINC001707162141    0.1400
     57 H57        -7.7568    1.0824   54.7322 H       1  ZINC001707162141    0.1600
@<TRIPOS>BOND
     1     1     2    1
     2     1    29    1
     3     1    30    1
     4     1    31    1
     5     2     3    1
     6     2     4    1
     7     2    23    1
     8     4     5    1
     9     4    32    1
    10     5     6    1
    11     5    33    1
    12     5    34    1
    13     6     7    1
    14     6    14    1
    15     6     8    1
    16     8     9    1
    17     8    35    1
    18     8    36    1
    19     9    10    1
    20     9    11    1
    21     9    12    1
    22    11    37    1
    23    11    38    1
    24    11    39    1
    25    12    13    1
    26    12    40    1
    27    12    41    1
    28    13    14    1
    29    13    42    1
    30    13    43    1
    31    14    15   am
    32    15    16    2
    33    15    17    1
    34    17    18    1
    35    17    44    1
    36    17    45    1
    37    18    19    1
    38    18    46    1
    39    18    47    1
    40    19    20    1
    41    19    48    1
    42    19    49    1
    43    20    22    1
    44    20    21    1
    45    20    50    1
    46    21    22    1
    47    21    51    1
    48    21    52    1
    49    22    53    1
    50    22    54    1
    51    23    28   ar
    52    23    24   ar
    53    24    25   ar
    54    25    26   ar
    55    25    55    1
    56    26    27   ar
    57    26    56    1
    58    27    28   ar
    59    27    57    1
@<TRIPOS>SUBSTRUCTURE
     1 ZINC001707162141        1 TEMP              0 ****  ****    0 ROOT


##########                                Name:    ZINC000675319328
##########                DOCK_Rotatable_Bonds:                   7
##########                         Heavy_Atoms:                  26
##########                    Molecular_Weight:             363.475
##########                DOCK_Rotatable_Bonds:                   7
##########                       Formal_Charge:          -0.0200007
##########                     HBond_Acceptors:                   6
##########                        HBond_Donors:                   1
##########                         Heavy_Atoms:                  26
##########                          Grid_Score:          -29.866627
##########                     Grid_vdw_energy:          -29.741776
##########                      Grid_es_energy:           -0.124852
##########           Internal_energy_repulsive:           14.251719

@<TRIPOS>MOLECULE
ZINC000675319328
 56 58 1 0 0
SMALL
USER_CHARGES


@<TRIPOS>ATOM
      1 C1        -10.8490    3.4055   53.7614 C.3     1  ZINC000675319328   -0.1600
      2 C2        -10.2356    2.3033   54.6271 C.3     1  ZINC000675319328    0.1600
      3 H3        -10.8982    1.4378   54.6369 H       1  ZINC000675319328    0.0900
      4 C4        -10.0505    2.8199   56.0553 C.3     1  ZINC000675319328   -0.1200
      5 C5         -9.6454    1.6610   56.9684 C.3     1  ZINC000675319328   -0.1200
      6 H6        -10.1297    0.7358   56.6561 H       1  ZINC000675319328    0.0800
      7 C7         -8.1016    1.4941   56.9977 C.3     1  ZINC000675319328   -0.1500
      8 C8         -7.8999    0.8705   58.4017 C.3     1  ZINC000675319328    0.0500
      9 O9         -8.8769    1.5084   59.2394 O.3     1  ZINC000675319328   -0.3900
     10 C10        -9.9732    1.9825   58.4423 C.3     1  ZINC000675319328    0.0500
     11 N11        -8.9348    1.9161   54.0754 N.am    1  ZINC000675319328   -0.7400
     12 C12        -8.8549    0.9144   53.1772 C.2     1  ZINC000675319328    0.7000
     13 O13        -9.8624    0.3322   52.8247 O.2     1  ZINC000675319328   -0.5900
     14 N14        -7.6582    0.5583   52.6697 N.am    1  ZINC000675319328   -0.6200
     15 C15        -7.6027   -0.5425   51.6878 C.3     1  ZINC000675319328    0.1300
     16 C16        -6.6346   -0.2173   50.5379 C.3     1  ZINC000675319328   -0.1300
     17 C17        -6.7781    1.2376   50.1491 C.3     1  ZINC000675319328    0.0700
     18 N18        -5.8085    2.0318   50.9018 N.3     1  ZINC000675319328   -0.5500
     19 C19        -5.2975    3.1453   50.0914 C.3     1  ZINC000675319328    0.1000
     20 C20        -3.8312    2.9339   49.8148 C.ar    1  ZINC000675319328   -0.0900
     21 C21        -3.4168    2.5252   48.5608 C.ar    1  ZINC000675319328   -0.0900
     22 C22        -2.0724    2.3310   48.3061 C.ar    1  ZINC000675319328   -0.1500
     23 C23        -1.1405    2.5464   49.3071 C.ar    1  ZINC000675319328    0.1000
     24 F24         0.1740    2.3573   49.0590 F       1  ZINC000675319328   -0.1400
     25 C25        -1.5567    2.9562   50.5625 C.ar    1  ZINC000675319328   -0.1500
     26 C26        -2.9012    3.1544   50.8135 C.ar    1  ZINC000675319328   -0.0700
     27 C27        -6.2210    2.4812   52.1780 C.3     1  ZINC000675319328    0.0500
     28 C28        -6.4760    1.2743   53.1042 C.3     1  ZINC000675319328    0.1100
     29 H29       -10.9809    3.0374   52.7439 H       1  ZINC000675319328    0.0600
     30 H30       -11.8168    3.6936   54.1718 H       1  ZINC000675319328    0.0700
     31 H31       -10.1864    4.2709   53.7516 H       1  ZINC000675319328    0.0500
     32 H32        -9.2711    3.5819   56.0678 H       1  ZINC000675319328    0.0700
     33 H33       -10.9865    3.2517   56.4095 H       1  ZINC000675319328    0.0900
     34 H34        -7.7648    0.8153   56.2143 H       1  ZINC000675319328    0.0800
     35 H35        -7.6006    2.4591   56.9209 H       1  ZINC000675319328    0.0800
     36 H36        -8.0755   -0.2046   58.3669 H       1  ZINC000675319328    0.0600
     37 H37        -6.8943    1.0788   58.7673 H       1  ZINC000675319328    0.0900
     38 H38       -10.0828    3.0597   58.5676 H       1  ZINC000675319328    0.0700
     39 H39       -10.8926    1.4788   58.7410 H       1  ZINC000675319328    0.0700
     40 H40        -8.1311    2.3806   54.3566 H       1  ZINC000675319328    0.3900
     41 H41        -7.2691   -1.4512   52.1889 H       1  ZINC000675319328    0.0600
     42 H42        -8.5998   -0.7069   51.2792 H       1  ZINC000675319328    0.0900
     43 H43        -5.6110   -0.4074   50.8606 H       1  ZINC000675319328    0.0800
     44 H44        -6.8667   -0.8470   49.6791 H       1  ZINC000675319328    0.0800
     45 H45        -6.5903    1.3497   49.0812 H       1  ZINC000675319328    0.0700
     46 H46        -7.7870    1.5789   50.3806 H       1  ZINC000675319328    0.0400
     47 H47        -5.8425    3.1884   49.1484 H       1  ZINC000675319328    0.0900
     48 H48        -5.4338    4.0813   50.6329 H       1  ZINC000675319328    0.0400
     49 H49        -4.1439    2.3573   47.7801 H       1  ZINC000675319328    0.1300
     50 H50        -1.7490    2.0111   47.3266 H       1  ZINC000675319328    0.1400
     51 H51        -0.8307    3.1242   51.3442 H       1  ZINC000675319328    0.1400
     52 H52        -3.2261    3.4743   51.7925 H       1  ZINC000675319328    0.1300
     53 H53        -5.4426    3.1111   52.6087 H       1  ZINC000675319328    0.0900
     54 H54        -7.1390    3.0602   52.0784 H       1  ZINC000675319328    0.0300
     55 H55        -6.6224    1.6256   54.1257 H       1  ZINC000675319328    0.0700
     56 H56        -5.6172    0.6040   53.0715 H       1  ZINC000675319328    0.0900
@<TRIPOS>BOND
     1     1     2    1
     2     1    29    1
     3     1    30    1
     4     1    31    1
     5     2     3    1
     6     2     4    1
     7     2    11    1
     8     4     5    1
     9     4    32    1
    10     4    33    1
    11     5     6    1
    12     5    10    1
    13     5     7    1
    14     7     8    1
    15     7    34    1
    16     7    35    1
    17     8     9    1
    18     8    36    1
    19     8    37    1
    20     9    10    1
    21    10    38    1
    22    10    39    1
    23    11    12   am
    24    11    40    1
    25    12    13    2
    26    12    14   am
    27    14    28    1
    28    14    15    1
    29    15    16    1
    30    15    41    1
    31    15    42    1
    32    16    17    1
    33    16    43    1
    34    16    44    1
    35    17    18    1
    36    17    45    1
    37    17    46    1
    38    18    19    1
    39    18    27    1
    40    19    20    1
    41    19    47    1
    42    19    48    1
    43    20    26   ar
    44    20    21   ar
    45    21    22   ar
    46    21    49    1
    47    22    23   ar
    48    22    50    1
    49    23    24    1
    50    23    25   ar
    51    25    26   ar
    52    25    51    1
    53    26    52    1
    54    27    28    1
    55    27    53    1
    56    27    54    1
    57    28    55    1
    58    28    56    1
@<TRIPOS>SUBSTRUCTURE
     1 ZINC000675319328        1 TEMP              0 ****  ****    0 ROOT


##########                                Name:    ZINC000790205345
##########                DOCK_Rotatable_Bonds:                   7
##########                         Heavy_Atoms:                  28
##########                    Molecular_Weight:             382.459
##########                DOCK_Rotatable_Bonds:                   7
##########                       Formal_Charge:          -0.0299997
##########                     HBond_Acceptors:                   6
##########                        HBond_Donors:                   0
##########                         Heavy_Atoms:                  28
##########                          Grid_Score:          -29.817614
##########                     Grid_vdw_energy:          -28.875473
##########                      Grid_es_energy:           -0.942140
##########           Internal_energy_repulsive:           50.016197

@<TRIPOS>MOLECULE
ZINC000790205345
 54 56 1 0 0
SMALL
USER_CHARGES


@<TRIPOS>ATOM
      1 C1         -0.5076    3.9826   50.3755 C.3     1  ZINC000790205345   -0.1100
      2 C2         -1.7797    3.2261   50.0913 C.ar    1  ZINC000790205345   -0.1300
      3 C3         -2.0861    2.8534   48.7958 C.ar    1  ZINC000790205345   -0.0800
      4 C4         -3.2514    2.1594   48.5326 C.ar    1  ZINC000790205345   -0.2100
      5 C5         -4.1143    1.8367   49.5697 C.ar    1  ZINC000790205345    0.1300
      6 O6         -5.2610    1.1537   49.3136 O.3     1  ZINC000790205345   -0.2900
      7 C7         -6.4644    1.6682   49.8874 C.3     1  ZINC000790205345    0.0400
      8 C8         -6.9726    0.7089   50.9326 C.2     1  ZINC000790205345    0.5200
      9 O9         -6.5559   -0.4296   50.9647 O.2     1  ZINC000790205345   -0.5100
     10 N10        -7.8903    1.1161   51.8318 N.am    1  ZINC000790205345   -0.6100
     11 C11        -8.3951    2.4909   51.7918 C.3     1  ZINC000790205345    0.0700
     12 C12        -8.3831    0.1842   52.8489 C.3     1  ZINC000790205345    0.1800
     13 H13        -7.7799   -0.7237   52.8327 H       1  ZINC000790205345    0.1200
     14 C14        -9.8425   -0.1679   52.5539 C.3     1  ZINC000790205345   -0.1600
     15 C15        -8.2864    0.8271   54.2084 C.ar    1  ZINC000790205345   -0.0700
     16 C16        -7.0831    1.3547   54.6388 C.ar    1  ZINC000790205345   -0.1300
     17 C17        -6.9902    1.9451   55.8861 C.ar    1  ZINC000790205345   -0.0900
     18 C18        -8.1000    2.0098   56.7053 C.ar    1  ZINC000790205345   -0.1500
     19 C19        -9.3102    1.4812   56.2757 C.ar    1  ZINC000790205345    0.1800
     20 N20       -10.4369    1.5455   57.1036 N.am    1  ZINC000790205345   -0.5700
     21 C21       -11.7739    1.0311   56.7701 C.3     1  ZINC000790205345    0.0600
     22 C22       -12.6157    1.3607   58.0179 C.3     1  ZINC000790205345    0.0400
     23 O23       -11.6747    2.0194   58.9143 O.3     1  ZINC000790205345   -0.3200
     24 C24       -10.4720    2.0804   58.3318 C.2     1  ZINC000790205345    0.6400
     25 O25        -9.5019    2.5825   58.8643 O.2     1  ZINC000790205345   -0.5000
     26 C26        -9.4015    0.8937   55.0210 C.ar    1  ZINC000790205345   -0.1400
     27 C27        -3.8045    2.2119   50.8691 C.ar    1  ZINC000790205345   -0.1500
     28 C28        -2.6356    2.9009   51.1276 C.ar    1  ZINC000790205345   -0.0500
     29 C29        -2.2981    3.3084   52.5387 C.3     1  ZINC000790205345   -0.1200
     30 H30         0.2978    3.2763   50.5771 H       1  ZINC000790205345    0.0700
     31 H31        -0.2474    4.5935   49.5111 H       1  ZINC000790205345    0.0600
     32 H32        -0.6533    4.6251   51.2438 H       1  ZINC000790205345    0.0700
     33 H33        -1.4141    3.1052   47.9886 H       1  ZINC000790205345    0.1300
     34 H34        -3.4906    1.8688   47.5204 H       1  ZINC000790205345    0.1300
     35 H35        -6.2625    2.6349   50.3489 H       1  ZINC000790205345    0.1000
     36 H36        -7.2165    1.7878   49.1076 H       1  ZINC000790205345    0.0900
     37 H37        -9.2093    2.5582   51.0704 H       1  ZINC000790205345    0.0600
     38 H38        -8.7604    2.7725   52.7794 H       1  ZINC000790205345    0.0800
     39 H39        -7.5910    3.1647   51.4961 H       1  ZINC000790205345    0.0700
     40 H40       -10.4457    0.7399   52.5701 H       1  ZINC000790205345    0.0600
     41 H41        -9.9125   -0.6330   51.5706 H       1  ZINC000790205345    0.0700
     42 H42       -10.2092   -0.8614   53.3107 H       1  ZINC000790205345    0.0800
     43 H43        -6.2138    1.3054   53.9999 H       1  ZINC000790205345    0.1300
     44 H44        -6.0488    2.3558   56.2197 H       1  ZINC000790205345    0.1300
     45 H45        -8.0267    2.4707   57.6793 H       1  ZINC000790205345    0.1300
     46 H46       -12.1727    1.5414   55.8934 H       1  ZINC000790205345    0.1000
     47 H47       -11.7396   -0.0458   56.6049 H       1  ZINC000790205345    0.1000
     48 H48       -13.4332    2.0341   57.7603 H       1  ZINC000790205345    0.1100
     49 H49       -13.0002    0.4473   58.4716 H       1  ZINC000790205345    0.1100
     50 H50       -10.3414    0.4819   54.6839 H       1  ZINC000790205345    0.1600
     51 H51        -4.4747    1.9620   51.6782 H       1  ZINC000790205345    0.1300
     52 H52        -1.7227    2.5163   53.0179 H       1  ZINC000790205345    0.0700
     53 H53        -1.7094    4.2255   52.5212 H       1  ZINC000790205345    0.0700
     54 H54        -3.2184    3.4779   53.0978 H       1  ZINC000790205345    0.0700
@<TRIPOS>BOND
     1     1     2    1
     2     1    30    1
     3     1    31    1
     4     1    32    1
     5     2    28   ar
     6     2     3   ar
     7     3     4   ar
     8     3    33    1
     9     4     5   ar
    10     4    34    1
    11     5     6    1
    12     5    27   ar
    13     6     7    1
    14     7     8    1
    15     7    35    1
    16     7    36    1
    17     8     9    2
    18     8    10   am
    19    10    11    1
    20    10    12    1
    21    11    37    1
    22    11    38    1
    23    11    39    1
    24    12    13    1
    25    12    14    1
    26    12    15    1
    27    14    40    1
    28    14    41    1
    29    14    42    1
    30    15    26   ar
    31    15    16   ar
    32    16    17   ar
    33    16    43    1
    34    17    18   ar
    35    17    44    1
    36    18    19   ar
    37    18    45    1
    38    19    20    1
    39    19    26   ar
    40    20    24   am
    41    20    21    1
    42    21    22    1
    43    21    46    1
    44    21    47    1
    45    22    23    1
    46    22    48    1
    47    22    49    1
    48    23    24    1
    49    24    25    2
    50    26    50    1
    51    27    28   ar
    52    27    51    1
    53    28    29    1
    54    29    52    1
    55    29    53    1
    56    29    54    1
@<TRIPOS>SUBSTRUCTURE
     1 ZINC000790205345        1 TEMP              0 ****  ****    0 ROOT


##########                                Name:    ZINC000326056918
##########                DOCK_Rotatable_Bonds:                   6
##########                         Heavy_Atoms:                  24
##########                    Molecular_Weight:             408.326
##########                DOCK_Rotatable_Bonds:                   6
##########                       Formal_Charge:         -0.00999978
##########                     HBond_Acceptors:                   9
##########                        HBond_Donors:                   0
##########                         Heavy_Atoms:                  24
##########                          Grid_Score:          -29.814194
##########                     Grid_vdw_energy:          -29.246702
##########                      Grid_es_energy:           -0.567491
##########           Internal_energy_repulsive:           21.725210

@<TRIPOS>MOLECULE
ZINC000326056918
 39 40 1 0 0
SMALL
USER_CHARGES


@<TRIPOS>ATOM
      1 C1        -10.0976    5.0125   47.9025 C.3     1  ZINC000326056918    0.0400
      2 O2         -9.6501    4.4648   49.1705 O.3     1  ZINC000326056918   -0.3500
      3 C3         -8.5103    4.9688   49.6871 C.2     1  ZINC000326056918    0.5000
      4 O4         -7.8008    5.6872   49.0090 O.2     1  ZINC000326056918   -0.4300
      5 C5         -8.1273    4.6508   51.0638 C.2     1  ZINC000326056918   -0.1600
      6 C6         -7.3885    3.5676   51.4518 C.2     1  ZINC000326056918   -0.6200
      7 S7         -6.7707    2.3623   50.3247 S.o2    1  ZINC000326056918    2.6900
      8 O8         -7.4788    1.1602   50.5948 O.2     1  ZINC000326056918   -0.9100
      9 O9         -6.7506    2.9817   49.0460 O.2     1  ZINC000326056918   -0.9400
     10 N10        -5.1910    2.0757   50.7305 N.am    1  ZINC000326056918   -0.9900
     11 C11        -4.7671    0.7280   51.1179 C.3     1  ZINC000326056918    0.0900
     12 C12        -4.2173    3.1701   50.7022 C.3     1  ZINC000326056918    0.1500
     13 C13        -3.1156    2.8370   49.7295 C.ar    1  ZINC000326056918   -0.0900
     14 C14        -3.4222    2.5271   48.4181 C.ar    1  ZINC000326056918   -0.0800
     15 C15        -2.4121    2.2211   47.5252 C.ar    1  ZINC000326056918   -0.1100
     16 C16        -1.0937    2.2252   47.9440 C.ar    1  ZINC000326056918   -0.0200
     17 Cl17        0.1747    1.8414   46.8226 Cl      1  ZINC000326056918   -0.0600
     18 C18        -0.7861    2.5358   49.2566 C.ar    1  ZINC000326056918   -0.1100
     19 C19        -1.7967    2.8471   50.1481 C.ar    1  ZINC000326056918   -0.0300
     20 Cl20       -1.4117    3.2375   51.7953 Cl      1  ZINC000326056918   -0.0100
     21 C21        -7.1750    3.5131   52.8082 C.2     1  ZINC000326056918   -0.0400
     22 C22        -6.3858    2.4062   53.4586 C.3     1  ZINC000326056918   -0.1100
     23 C23        -7.7188    4.5153   53.5094 C.2     1  ZINC000326056918   -0.2600
     24 S24        -8.5374    5.6047   52.4829 S.3     1  ZINC000326056918    0.3100
     25 H25       -11.0227    4.5213   47.6007 H       1  ZINC000326056918    0.1100
     26 H26       -10.2731    6.0828   48.0105 H       1  ZINC000326056918    0.0700
     27 H27        -9.3329    4.8445   47.1440 H       1  ZINC000326056918    0.0700
     28 H28        -4.5345    0.1493   50.2240 H       1  ZINC000326056918    0.0600
     29 H29        -3.8810    0.7932   51.7492 H       1  ZINC000326056918    0.0700
     30 H30        -5.5705    0.2387   51.6687 H       1  ZINC000326056918    0.0900
     31 H31        -4.7127    4.0891   50.3892 H       1  ZINC000326056918    0.1100
     32 H32        -3.7945    3.3060   51.6975 H       1  ZINC000326056918    0.0900
     33 H33        -4.4514    2.5237   48.0906 H       1  ZINC000326056918    0.1400
     34 H34        -2.6524    1.9783   46.5006 H       1  ZINC000326056918    0.1400
     35 H35         0.2432    2.5392   49.5841 H       1  ZINC000326056918    0.1500
     36 H36        -5.3216    2.6335   53.3960 H       1  ZINC000326056918    0.0900
     37 H37        -6.6776    2.3185   54.5052 H       1  ZINC000326056918    0.0700
     38 H38        -6.5874    1.4661   52.9451 H       1  ZINC000326056918    0.0900
     39 H39        -7.6457    4.6220   54.5817 H       1  ZINC000326056918    0.1800
@<TRIPOS>BOND
     1     1     2    1
     2     1    25    1
     3     1    26    1
     4     1    27    1
     5     2     3    1
     6     3     4    2
     7     3     5    1
     8     5    24    1
     9     5     6    2
    10     6     7    1
    11     6    21    1
    12     7     8    2
    13     7     9    2
    14     7    10   am
    15    10    11    1
    16    10    12    1
    17    11    28    1
    18    11    29    1
    19    11    30    1
    20    12    13    1
    21    12    31    1
    22    12    32    1
    23    13    19   ar
    24    13    14   ar
    25    14    15   ar
    26    14    33    1
    27    15    16   ar
    28    15    34    1
    29    16    17    1
    30    16    18   ar
    31    18    19   ar
    32    18    35    1
    33    19    20    1
    34    21    22    1
    35    21    23    2
    36    22    36    1
    37    22    37    1
    38    22    38    1
    39    23    24    1
    40    23    39    1
@<TRIPOS>SUBSTRUCTURE
     1 ZINC000326056918        1 TEMP              0 ****  ****    0 ROOT


##########                                Name:    ZINC000277085192
##########                DOCK_Rotatable_Bonds:                   4
##########                         Heavy_Atoms:                  23
##########                    Molecular_Weight:             335.747
##########                DOCK_Rotatable_Bonds:                   4
##########                       Formal_Charge:         5.96046e-08
##########                     HBond_Acceptors:                   8
##########                        HBond_Donors:                   2
##########                         Heavy_Atoms:                  23
##########                          Grid_Score:          -29.808712
##########                     Grid_vdw_energy:          -28.426300
##########                      Grid_es_energy:           -1.382411
##########           Internal_energy_repulsive:            5.655546

@<TRIPOS>MOLECULE
ZINC000277085192
 37 39 1 0 0
SMALL
USER_CHARGES


@<TRIPOS>ATOM
      1 O1         -5.3719    3.7823   50.2491 O.2     1  ZINC000277085192   -0.5000
      2 C2         -4.3474    3.4394   50.8005 C.2     1  ZINC000277085192    0.5000
      3 C3         -3.0727    4.2090   50.5681 C.3     1  ZINC000277085192    0.1100
      4 N4         -1.9644    3.2708   50.3740 N.am    1  ZINC000277085192   -0.6000
      5 C5         -1.7185    2.7093   49.0445 C.3     1  ZINC000277085192    0.1100
      6 C6         -0.2119    2.5528   48.8261 C.3     1  ZINC000277085192   -0.1600
      7 C7          0.4009    1.9074   50.0435 C.2     1  ZINC000277085192    0.5200
      8 O8          1.3398    1.1503   49.9208 O.2     1  ZINC000277085192   -0.5000
      9 N9         -0.0945    2.1727   51.2661 N.am    1  ZINC000277085192   -0.6700
     10 C10        -1.1848    2.9422   51.4170 C.2     1  ZINC000277085192    0.7200
     11 O11        -1.4784    3.3440   52.5259 O.2     1  ZINC000277085192   -0.5500
     12 N12        -4.3503    2.3737   51.6254 N.am    1  ZINC000277085192   -0.6700
     13 C13        -5.5345    1.6586   51.8414 C.ar    1  ZINC000277085192    0.1400
     14 C14        -6.3419    1.9682   52.9202 C.ar    1  ZINC000277085192   -0.0400
     15 C15        -7.5289    1.2514   53.1375 C.ar    1  ZINC000277085192   -0.1700
     16 C16        -7.8830    0.2286   52.2570 C.ar    1  ZINC000277085192   -0.0500
     17 C17        -7.0679   -0.0714   51.1817 C.ar    1  ZINC000277085192   -0.0900
     18 C18        -5.9017    0.6400   50.9671 C.ar    1  ZINC000277085192   -0.0300
     19 Cl19       -4.8870    0.2528   49.6128 Cl      1  ZINC000277085192   -0.0500
     20 C20        -9.1895   -0.3880   52.6968 C.3     1  ZINC000277085192   -0.0800
     21 C21        -9.6187    0.3682   53.9616 C.3     1  ZINC000277085192   -0.1700
     22 C22        -8.5375    1.3940   54.1999 C.2     1  ZINC000277085192    0.4100
     23 O23        -8.5056    2.1964   55.1086 O.2     1  ZINC000277085192   -0.4300
     24 H24        -3.1811    4.8320   49.6804 H       1  ZINC000277085192    0.1300
     25 H25        -2.8669    4.8406   51.4324 H       1  ZINC000277085192    0.1200
     26 H26        -2.1998    1.7344   48.9672 H       1  ZINC000277085192    0.0800
     27 H27        -2.1279    3.3773   48.2867 H       1  ZINC000277085192    0.1000
     28 H28        -0.0337    1.9255   47.9527 H       1  ZINC000277085192    0.1300
     29 H29         0.2372    3.5335   48.6688 H       1  ZINC000277085192    0.1200
     30 H30         0.3443    1.8057   52.0495 H       1  ZINC000277085192    0.4300
     31 H31        -3.5318    2.1018   52.0694 H       1  ZINC000277085192    0.4200
     32 H32        -6.0590    2.7617   53.5960 H       1  ZINC000277085192    0.1500
     33 H33        -7.3455   -0.8641   50.5028 H       1  ZINC000277085192    0.1500
     34 H34        -9.9410   -0.2691   51.9163 H       1  ZINC000277085192    0.1000
     35 H35        -9.0473   -1.4448   52.9226 H       1  ZINC000277085192    0.1000
     36 H36       -10.5776    0.8607   53.7998 H       1  ZINC000277085192    0.1100
     37 H37        -9.6829   -0.3165   54.8073 H       1  ZINC000277085192    0.1100
@<TRIPOS>BOND
     1     1     2    2
     2     2     3    1
     3     2    12   am
     4     3     4    1
     5     3    24    1
     6     3    25    1
     7     4    10   am
     8     4     5    1
     9     5     6    1
    10     5    26    1
    11     5    27    1
    12     6     7    1
    13     6    28    1
    14     6    29    1
    15     7     8    2
    16     7     9   am
    17     9    10   am
    18     9    30    1
    19    10    11    2
    20    12    13    1
    21    12    31    1
    22    13    18   ar
    23    13    14   ar
    24    14    15   ar
    25    14    32    1
    26    15    22    1
    27    15    16   ar
    28    16    17   ar
    29    16    20    1
    30    17    18   ar
    31    17    33    1
    32    18    19    1
    33    20    21    1
    34    20    34    1
    35    20    35    1
    36    21    22    1
    37    21    36    1
    38    21    37    1
    39    22    23    2
@<TRIPOS>SUBSTRUCTURE
     1 ZINC000277085192        1 TEMP              0 ****  ****    0 ROOT


##########                                Name:    ZINC001371344729
##########                DOCK_Rotatable_Bonds:                   9
##########                         Heavy_Atoms:                  24
##########                    Molecular_Weight:             332.399
##########                DOCK_Rotatable_Bonds:                   9
##########                       Formal_Charge:          0.00999983
##########                     HBond_Acceptors:                   6
##########                        HBond_Donors:                   1
##########                         Heavy_Atoms:                  24
##########                          Grid_Score:          -29.780390
##########                     Grid_vdw_energy:          -29.484430
##########                      Grid_es_energy:           -0.295960
##########           Internal_energy_repulsive:           22.079550

@<TRIPOS>MOLECULE
ZINC001371344729
 48 49 1 0 0
SMALL
USER_CHARGES


@<TRIPOS>ATOM
      1 C1        -11.7854   -1.2076   55.6896 C.3     1  ZINC001371344729   -0.1800
      2 C2        -10.2902   -1.4345   55.4581 C.3     1  ZINC001371344729    0.1000
      3 N3         -9.5481   -0.2321   55.8451 N.am    1  ZINC001371344729   -0.6100
      4 C4         -9.1799   -0.0515   57.1290 C.2     1  ZINC001371344729    0.5100
      5 O5         -8.5642    0.9432   57.4492 O.2     1  ZINC001371344729   -0.5200
      6 C6         -9.5331   -1.0856   58.1667 C.3     1  ZINC001371344729   -0.0600
      7 C7         -9.0896   -0.6062   59.5249 C.2     1  ZINC001371344729   -0.0100
      8 C8         -9.7875    0.2059   60.3391 C.2     1  ZINC001371344729   -0.1600
      9 C9        -11.1456    0.7996   60.0665 C.3     1  ZINC001371344729   -0.0800
     10 C10        -8.9999    0.4004   61.4969 C.2     1  ZINC001371344729   -0.2100
     11 C11        -7.8719   -0.3120   61.3251 C.2     1  ZINC001371344729   -0.0300
     12 O12        -7.9301   -0.9167   60.1273 O.3     1  ZINC001371344729   -0.1700
     13 C13        -9.2062    0.7740   54.8366 C.3     1  ZINC001371344729    0.1200
     14 H14        -8.3081    1.3083   55.1463 H       1  ZINC001371344729    0.1100
     15 C15       -10.3638    1.7638   54.6908 C.3     1  ZINC001371344729   -0.1600
     16 C16        -8.9522    0.0850   53.4944 C.3     1  ZINC001371344729    0.1100
     17 N17        -8.1877    0.9804   52.6226 N.am    1  ZINC001371344729   -0.7200
     18 C18        -7.3441    0.4688   51.7045 C.2     1  ZINC001371344729    0.5900
     19 O19        -7.2184   -0.7362   51.5989 O.2     1  ZINC001371344729   -0.5300
     20 C20        -6.5737    1.3696   50.8287 C.2     1  ZINC001371344729   -0.2300
     21 C21        -6.9670    2.5818   50.3418 C.2     1  ZINC001371344729    0.0200
     22 O22        -5.9780    3.0756   49.5905 O.3     1  ZINC001371344729   -0.1700
     23 C23        -4.9374    2.2288   49.5517 C.2     1  ZINC001371344729   -0.0100
     24 C24        -3.6531    2.4569   48.7971 C.3     1  ZINC001371344729   -0.0800
     25 C25        -5.2232    1.1468   50.2920 C.2     1  ZINC001371344729   -0.1600
     26 H26       -12.1222   -0.3634   55.0879 H       1  ZINC001371344729    0.0700
     27 H27       -12.3375   -2.1023   55.4016 H       1  ZINC001371344729    0.0700
     28 H28       -11.9618   -0.9955   56.7441 H       1  ZINC001371344729    0.0600
     29 H29       -10.1138   -1.6466   54.4035 H       1  ZINC001371344729    0.0900
     30 H30        -9.9534   -2.2787   56.0598 H       1  ZINC001371344729    0.0800
     31 H31        -9.0308   -2.0237   57.9307 H       1  ZINC001371344729    0.1100
     32 H32       -10.6118   -1.2422   58.1711 H       1  ZINC001371344729    0.1200
     33 H33       -11.9179    0.1246   60.4354 H       1  ZINC001371344729    0.0700
     34 H34       -11.2304    1.7606   60.5738 H       1  ZINC001371344729    0.0700
     35 H35       -11.2708    0.9429   58.9932 H       1  ZINC001371344729    0.0600
     36 H36        -9.2559    1.0031   62.3557 H       1  ZINC001371344729    0.1500
     37 H37        -7.0554   -0.3815   62.0287 H       1  ZINC001371344729    0.2000
     38 H38       -10.5446    2.2547   55.6471 H       1  ZINC001371344729    0.0700
     39 H39       -10.1094    2.5124   53.9404 H       1  ZINC001371344729    0.0700
     40 H40       -11.2619    1.2294   54.3811 H       1  ZINC001371344729    0.0700
     41 H41        -8.3870   -0.8326   53.6582 H       1  ZINC001371344729    0.0800
     42 H42        -9.9053   -0.1548   53.0230 H       1  ZINC001371344729    0.0800
     43 H43        -8.2888    1.9415   52.7061 H       1  ZINC001371344729    0.4000
     44 H44        -7.9155    3.0617   50.5328 H       1  ZINC001371344729    0.2100
     45 H45        -3.7474    2.0533   47.7889 H       1  ZINC001371344729    0.0800
     46 H46        -3.4485    3.5261   48.7427 H       1  ZINC001371344729    0.0800
     47 H47        -2.8343    1.9562   49.3137 H       1  ZINC001371344729    0.0900
     48 H48        -4.5903    0.2879   50.4596 H       1  ZINC001371344729    0.1600
@<TRIPOS>BOND
     1     1     2    1
     2     1    26    1
     3     1    27    1
     4     1    28    1
     5     2     3    1
     6     2    29    1
     7     2    30    1
     8     3     4   am
     9     3    13    1
    10     4     5    2
    11     4     6    1
    12     6     7    1
    13     6    31    1
    14     6    32    1
    15     7    12    1
    16     7     8    2
    17     8     9    1
    18     8    10    1
    19     9    33    1
    20     9    34    1
    21     9    35    1
    22    10    11    2
    23    10    36    1
    24    11    12    1
    25    11    37    1
    26    13    14    1
    27    13    15    1
    28    13    16    1
    29    15    38    1
    30    15    39    1
    31    15    40    1
    32    16    17    1
    33    16    41    1
    34    16    42    1
    35    17    18   am
    36    17    43    1
    37    18    19    2
    38    18    20    1
    39    20    25    1
    40    20    21    2
    41    21    22    1
    42    21    44    1
    43    22    23    1
    44    23    24    1
    45    23    25    2
    46    24    45    1
    47    24    46    1
    48    24    47    1
    49    25    48    1
@<TRIPOS>SUBSTRUCTURE
     1 ZINC001371344729        1 TEMP              0 ****  ****    0 ROOT


##########                                Name:    ZINC001045463759
##########                DOCK_Rotatable_Bonds:                   6
##########                         Heavy_Atoms:                  24
##########                    Molecular_Weight:             336.385
##########                DOCK_Rotatable_Bonds:                   6
##########                       Formal_Charge:          1.3411e-07
##########                     HBond_Acceptors:                   7
##########                        HBond_Donors:                   2
##########                         Heavy_Atoms:                  24
##########                          Grid_Score:          -29.770382
##########                     Grid_vdw_energy:          -30.417635
##########                      Grid_es_energy:            0.647252
##########           Internal_energy_repulsive:            9.050173

@<TRIPOS>MOLECULE
ZINC001045463759
 46 49 1 0 0
SMALL
USER_CHARGES


@<TRIPOS>ATOM
      1 O1         -8.4341    4.0608   49.0936 O.2     1  ZINC001045463759   -0.5100
      2 C2         -7.4743    4.6372   49.5600 C.2     1  ZINC001045463759    0.5400
      3 N3         -6.5217    3.9415   50.2119 N.am    1  ZINC001045463759   -0.7200
      4 C4         -6.6486    2.4898   50.3624 C.3     1  ZINC001045463759    0.1400
      5 H5         -7.2234    2.0869   49.5285 H       1  ZINC001045463759    0.1000
      6 C6         -7.3663    2.1740   51.6762 C.3     1  ZINC001045463759   -0.1300
      7 C7         -7.4989    0.6579   51.8334 C.3     1  ZINC001045463759   -0.1200
      8 C8         -6.1068    0.0230   51.8472 C.3     1  ZINC001045463759   -0.1200
      9 C9         -5.3892    0.3387   50.5334 C.3     1  ZINC001045463759   -0.1300
     10 C10        -5.2567    1.8548   50.3762 C.3     1  ZINC001045463759    0.1500
     11 H11        -4.6819    2.2577   51.2102 H       1  ZINC001045463759    0.0900
     12 N12        -4.5694    2.1571   49.1182 N.pl3   1  ZINC001045463759   -0.7100
     13 C13        -3.2893    2.6864   49.1381 C.ar    1  ZINC001045463759    0.4400
     14 C14        -2.9832    3.7718   49.9612 C.ar    1  ZINC001045463759   -0.3000
     15 C15        -1.6925    4.2632   49.9452 C.ar    1  ZINC001045463759    0.1800
     16 N16        -0.7934    3.6933   49.1554 N.ar    1  ZINC001045463759   -0.5600
     17 C17        -1.1138    2.6697   48.3899 C.ar    1  ZINC001045463759    0.4000
     18 C18        -0.0571    2.0548   47.5086 C.3     1  ZINC001045463759   -0.1100
     19 C19         1.2673    2.8072   47.3638 C.3     1  ZINC001045463759   -0.1500
     20 C20         1.2052    1.5195   48.1877 C.3     1  ZINC001045463759   -0.1500
     21 N21        -2.3309    2.1652   48.3774 N.ar    1  ZINC001045463759   -0.5700
     22 C22        -7.3438    6.1306   49.4052 C.3     1  ZINC001045463759   -0.2000
     23 H23        -6.4902    6.5826   49.9104 H       1  ZINC001045463759    0.1500
     24 C24        -7.7832    6.7440   48.0742 C.3     1  ZINC001045463759   -0.1500
     25 C25        -8.6345    6.9486   49.3298 C.3     1  ZINC001045463759    0.2300
     26 F26        -9.8458    6.2529   49.4093 F       1  ZINC001045463759   -0.1400
     27 F27        -8.6290    8.2197   49.9139 F       1  ZINC001045463759   -0.1500
     28 H28        -5.7521    4.4019   50.5815 H       1  ZINC001045463759    0.4000
     29 H29        -6.7915    2.5769   52.5101 H       1  ZINC001045463759    0.0700
     30 H30        -8.3580    2.6263   51.6663 H       1  ZINC001045463759    0.0800
     31 H31        -8.0102    0.4329   52.7694 H       1  ZINC001045463759    0.0700
     32 H32        -8.0737    0.2551   50.9995 H       1  ZINC001045463759    0.0700
     33 H33        -5.5321    0.4258   52.6811 H       1  ZINC001045463759    0.0700
     34 H34        -6.2013   -1.0571   51.9592 H       1  ZINC001045463759    0.0700
     35 H35        -4.3975   -0.1136   50.5433 H       1  ZINC001045463759    0.0700
     36 H36        -5.9640   -0.0641   49.6995 H       1  ZINC001045463759    0.0700
     37 H37        -5.0107    1.9867   48.2714 H       1  ZINC001045463759    0.4100
     38 H38        -3.7369    4.2163   50.5943 H       1  ZINC001045463759    0.1400
     39 H39        -1.4192    5.1020   50.5683 H       1  ZINC001045463759    0.1700
     40 H40        -0.4274    1.5148   46.6374 H       1  ZINC001045463759    0.1300
     41 H41         1.7684    2.7623   46.3968 H       1  ZINC001045463759    0.1000
     42 H42         1.3742    3.7469   47.9057 H       1  ZINC001045463759    0.1100
     43 H43         1.2712    1.6120   49.2717 H       1  ZINC001045463759    0.1000
     44 H44         1.6655    0.6275   47.7629 H       1  ZINC001045463759    0.1000
     45 H45        -7.2189    7.5998   47.7039 H       1  ZINC001045463759    0.1400
     46 H46        -8.1667    6.0674   47.3105 H       1  ZINC001045463759    0.1300
@<TRIPOS>BOND
     1     1     2    2
     2     2     3   am
     3     2    22    1
     4     3     4    1
     5     3    28    1
     6     4     5    1
     7     4    10    1
     8     4     6    1
     9     6     7    1
    10     6    29    1
    11     6    30    1
    12     7     8    1
    13     7    31    1
    14     7    32    1
    15     8     9    1
    16     8    33    1
    17     8    34    1
    18     9    10    1
    19     9    35    1
    20     9    36    1
    21    10    11    1
    22    10    12    1
    23    12    13    1
    24    12    37    1
    25    13    21   ar
    26    13    14   ar
    27    14    15   ar
    28    14    38    1
    29    15    16   ar
    30    15    39    1
    31    16    17   ar
    32    17    18    1
    33    17    21   ar
    34    18    20    1
    35    18    19    1
    36    18    40    1
    37    19    20    1
    38    19    41    1
    39    19    42    1
    40    20    43    1
    41    20    44    1
    42    22    23    1
    43    22    25    1
    44    22    24    1
    45    24    25    1
    46    24    45    1
    47    24    46    1
    48    25    26    1
    49    25    27    1
@<TRIPOS>SUBSTRUCTURE
     1 ZINC001045463759        1 TEMP              0 ****  ****    0 ROOT


##########                                Name:    ZINC000894043060
##########                DOCK_Rotatable_Bonds:                  11
##########                         Heavy_Atoms:                  26
##########                    Molecular_Weight:             396.812
##########                DOCK_Rotatable_Bonds:                  11
##########                       Formal_Charge:          -0.0199999
##########                     HBond_Acceptors:                   9
##########                        HBond_Donors:                   2
##########                         Heavy_Atoms:                  26
##########                          Grid_Score:          -29.761663
##########                     Grid_vdw_energy:          -28.689157
##########                      Grid_es_energy:           -1.072507
##########           Internal_energy_repulsive:           14.419895

@<TRIPOS>MOLECULE
ZINC000894043060
 47 47 1 0 0
SMALL
USER_CHARGES


@<TRIPOS>ATOM
      1 C1         -8.7527    6.1818   49.7547 C.3     1  ZINC000894043060   -0.1700
      2 C2         -9.2485    4.8730   49.1365 C.3     1  ZINC000894043060    0.1000
      3 H3         -9.9617    4.3997   49.8114 H       1  ZINC000894043060    0.1100
      4 N4         -8.1121    3.9745   48.9186 N.am    1  ZINC000894043060   -0.7300
      5 C5         -7.7525    3.0981   49.8772 C.2     1  ZINC000894043060    0.5200
      6 O6         -8.3688    3.0543   50.9209 O.2     1  ZINC000894043060   -0.5200
      7 C7         -6.5847    2.1726   49.6524 C.3     1  ZINC000894043060   -0.1400
      8 C8         -5.6479    2.2306   50.8607 C.3     1  ZINC000894043060   -0.0200
      9 C9         -5.6118    0.8622   51.5442 C.3     1  ZINC000894043060   -0.1400
     10 C10        -6.7734    0.7460   52.4973 C.2     1  ZINC000894043060    0.5200
     11 O11        -7.6785   -0.0252   52.2588 O.2     1  ZINC000894043060   -0.5200
     12 N12        -6.8063    1.4992   53.6146 N.am    1  ZINC000894043060   -0.7300
     13 C13        -7.9347    1.3849   54.5418 C.3     1  ZINC000894043060    0.1000
     14 H14        -8.2791    0.3512   54.5695 H       1  ZINC000894043060    0.1200
     15 C15        -7.4894    1.8118   55.9420 C.3     1  ZINC000894043060   -0.1700
     16 C16        -9.0750    2.2900   54.0713 C.3     1  ZINC000894043060    0.2600
     17 F17       -10.1703    2.1444   54.9294 F       1  ZINC000894043060   -0.1900
     18 F18        -8.6479    3.6221   54.0823 F       1  ZINC000894043060   -0.2000
     19 C19        -4.2604    2.6005   50.4033 C.ar    1  ZINC000894043060   -0.0600
     20 C20        -3.6375    1.8588   49.4170 C.ar    1  ZINC000894043060   -0.1200
     21 C21        -2.3649    2.1975   48.9971 C.ar    1  ZINC000894043060   -0.1200
     22 C22        -1.7146    3.2790   49.5642 C.ar    1  ZINC000894043060   -0.0400
     23 Cl23       -0.1165    3.7053   49.0370 Cl      1  ZINC000894043060   -0.0800
     24 C24        -2.3386    4.0209   50.5513 C.ar    1  ZINC000894043060   -0.1100
     25 C25        -3.6134    3.6846   50.9664 C.ar    1  ZINC000894043060   -0.0400
     26 C26        -9.9301    5.1670   47.7986 C.3     1  ZINC000894043060    0.2600
     27 F27       -10.9800    6.0697   47.9986 F       1  ZINC000894043060   -0.2000
     28 F28        -8.9999    5.7222   46.9134 F       1  ZINC000894043060   -0.1900
     29 H29        -8.0394    6.6551   49.0799 H       1  ZINC000894043060    0.0600
     30 H30        -9.5982    6.8503   49.9169 H       1  ZINC000894043060    0.0800
     31 H31        -8.2671    5.9724   50.7079 H       1  ZINC000894043060    0.0800
     32 H32        -7.6185    4.0104   48.0843 H       1  ZINC000894043060    0.4000
     33 H33        -6.9485    1.1533   49.5234 H       1  ZINC000894043060    0.1000
     34 H34        -6.0434    2.4812   48.7580 H       1  ZINC000894043060    0.1000
     35 H35        -6.0098    2.9793   51.5653 H       1  ZINC000894043060    0.1000
     36 H36        -5.6803    0.0777   50.7906 H       1  ZINC000894043060    0.1000
     37 H37        -4.6775    0.7560   52.0954 H       1  ZINC000894043060    0.1000
     38 H38        -6.0829    2.1168   53.8046 H       1  ZINC000894043060    0.4000
     39 H39        -7.1450    2.8456   55.9143 H       1  ZINC000894043060    0.0700
     40 H40        -8.3289    1.7269   56.6319 H       1  ZINC000894043060    0.0800
     41 H41        -6.6769    1.1670   56.2772 H       1  ZINC000894043060    0.0700
     42 H42        -9.3669    2.0102   53.0591 H       1  ZINC000894043060    0.1200
     43 H43        -4.1450    1.0144   48.9746 H       1  ZINC000894043060    0.1200
     44 H44        -1.8781    1.6178   48.2268 H       1  ZINC000894043060    0.1300
     45 H45        -1.8313    4.8650   50.9946 H       1  ZINC000894043060    0.1300
     46 H46        -4.1007    4.2639   51.7367 H       1  ZINC000894043060    0.1300
     47 H47       -10.3224    4.2405   47.3794 H       1  ZINC000894043060    0.1100
@<TRIPOS>BOND
     1     1     2    1
     2     1    29    1
     3     1    30    1
     4     1    31    1
     5     2     3    1
     6     2     4    1
     7     2    26    1
     8     4     5   am
     9     4    32    1
    10     5     6    2
    11     5     7    1
    12     7     8    1
    13     7    33    1
    14     7    34    1
    15     8     9    1
    16     8    19    1
    17     8    35    1
    18     9    10    1
    19     9    36    1
    20     9    37    1
    21    10    11    2
    22    10    12   am
    23    12    13    1
    24    12    38    1
    25    13    14    1
    26    13    15    1
    27    13    16    1
    28    15    39    1
    29    15    40    1
    30    15    41    1
    31    16    17    1
    32    16    18    1
    33    16    42    1
    34    19    25   ar
    35    19    20   ar
    36    20    21   ar
    37    20    43    1
    38    21    22   ar
    39    21    44    1
    40    22    23    1
    41    22    24   ar
    42    24    25   ar
    43    24    45    1
    44    25    46    1
    45    26    27    1
    46    26    28    1
    47    26    47    1
@<TRIPOS>SUBSTRUCTURE
     1 ZINC000894043060        1 TEMP              0 ****  ****    0 ROOT


##########                                Name:    ZINC000081577146
##########                DOCK_Rotatable_Bonds:                   4
##########                         Heavy_Atoms:                  25
##########                    Molecular_Weight:             355.464
##########                DOCK_Rotatable_Bonds:                   4
##########                       Formal_Charge:                0.02
##########                     HBond_Acceptors:                   7
##########                        HBond_Donors:                   0
##########                         Heavy_Atoms:                  25
##########                          Grid_Score:          -29.761314
##########                     Grid_vdw_energy:          -28.977795
##########                      Grid_es_energy:           -0.783520
##########           Internal_energy_repulsive:           14.540952

@<TRIPOS>MOLECULE
ZINC000081577146
 46 49 1 0 0
SMALL
USER_CHARGES


@<TRIPOS>ATOM
      1 C1        -11.5336    0.9337   52.0290 C.3     1  ZINC000081577146   -0.0700
      2 C2        -10.0869    0.5902   52.2745 C.2     1  ZINC000081577146    0.2900
      3 N3         -9.7546   -0.4502   52.9818 N.2     1  ZINC000081577146   -0.4800
      4 S4         -8.0554   -0.4667   53.0086 S.3     1  ZINC000081577146    0.1900
      5 C5         -7.8891    0.9542   52.0482 C.2     1  ZINC000081577146    0.2700
      6 N6         -6.7156    1.5654   51.6451 N.3     1  ZINC000081577146   -0.4300
      7 C7         -6.9949    2.7849   50.8741 C.3     1  ZINC000081577146    0.0700
      8 C8         -5.6752    3.4723   50.5160 C.3     1  ZINC000081577146    0.0500
      9 N9         -4.8366    2.5450   49.7438 N.3     1  ZINC000081577146   -0.5200
     10 C10        -3.5903    3.1942   49.3158 C.3     1  ZINC000081577146    0.1900
     11 H11        -3.8097    4.1982   48.9525 H       1  ZINC000081577146    0.0700
     12 C12        -2.9478    2.3752   48.1944 C.3     1  ZINC000081577146   -0.1500
     13 C13        -2.6412    3.2787   50.4832 C.2     1  ZINC000081577146    0.1900
     14 N14        -1.4122    2.8441   50.4923 N.2     1  ZINC000081577146   -0.4500
     15 C15        -0.8738    3.0881   51.6964 C.2     1  ZINC000081577146   -0.0200
     16 C16        -1.8220    3.6994   52.4517 C.2     1  ZINC000081577146    0.0000
     17 C17        -1.6761    4.1538   53.8508 C.ar    1  ZINC000081577146   -0.0200
     18 C18        -2.7780    4.6602   54.5418 C.ar    1  ZINC000081577146   -0.1000
     19 C19        -2.6351    5.0821   55.8475 C.ar    1  ZINC000081577146   -0.1200
     20 C20        -1.4028    5.0047   56.4719 C.ar    1  ZINC000081577146   -0.1100
     21 C21        -0.3065    4.5043   55.7924 C.ar    1  ZINC000081577146   -0.1100
     22 C22        -0.4371    4.0732   54.4884 C.ar    1  ZINC000081577146   -0.0900
     23 O23        -2.9229    3.8177   51.6772 O.3     1  ZINC000081577146   -0.2000
     24 C24        -4.5573    1.3254   50.5148 C.3     1  ZINC000081577146    0.0600
     25 C25        -5.8770    0.6380   50.8729 C.3     1  ZINC000081577146    0.0500
     26 N26        -9.1217    1.3282   51.7772 N.2     1  ZINC000081577146   -0.5400
     27 H27       -11.8761    0.4365   51.1214 H       1  ZINC000081577146    0.0900
     28 H28       -12.1349    0.6004   52.8748 H       1  ZINC000081577146    0.0900
     29 H29       -11.6363    2.0127   51.9129 H       1  ZINC000081577146    0.0900
     30 H30        -7.5283    2.5232   49.9603 H       1  ZINC000081577146    0.0700
     31 H31        -7.6066    3.4608   51.4718 H       1  ZINC000081577146    0.1100
     32 H32        -5.8785    4.3615   49.9194 H       1  ZINC000081577146    0.1000
     33 H33        -5.1545    3.7584   51.4299 H       1  ZINC000081577146    0.0600
     34 H34        -2.7283    1.3712   48.5577 H       1  ZINC000081577146    0.0800
     35 H35        -3.6343    2.3141   47.3500 H       1  ZINC000081577146    0.0800
     36 H36        -2.0230    2.8568   47.8768 H       1  ZINC000081577146    0.0700
     37 H37         0.1308    2.8431   52.0082 H       1  ZINC000081577146    0.1900
     38 H38        -3.7403    4.7218   54.0554 H       1  ZINC000081577146    0.1300
     39 H39        -3.4870    5.4742   56.3834 H       1  ZINC000081577146    0.1300
     40 H40        -1.2963    5.3367   57.4940 H       1  ZINC000081577146    0.1300
     41 H41         0.6528    4.4472   56.2853 H       1  ZINC000081577146    0.1300
     42 H42         0.4194    3.6823   53.9592 H       1  ZINC000081577146    0.1300
     43 H43        -3.9456    0.6496   49.9172 H       1  ZINC000081577146    0.0900
     44 H44        -4.0239    1.5872   51.4287 H       1  ZINC000081577146    0.0500
     45 H45        -5.6736   -0.2512   51.4695 H       1  ZINC000081577146    0.1000
     46 H46        -6.3977    0.3520   49.9591 H       1  ZINC000081577146    0.0800
@<TRIPOS>BOND
     1     1     2    1
     2     1    27    1
     3     1    28    1
     4     1    29    1
     5     2    26    1
     6     2     3    2
     7     3     4    1
     8     4     5    1
     9     5     6    1
    10     5    26    2
    11     6    25    1
    12     6     7    1
    13     7     8    1
    14     7    30    1
    15     7    31    1
    16     8     9    1
    17     8    32    1
    18     8    33    1
    19     9    10    1
    20     9    24    1
    21    10    11    1
    22    10    12    1
    23    10    13    1
    24    12    34    1
    25    12    35    1
    26    12    36    1
    27    13    23    1
    28    13    14    2
    29    14    15    1
    30    15    16    2
    31    15    37    1
    32    16    17    1
    33    16    23    1
    34    17    22   ar
    35    17    18   ar
    36    18    19   ar
    37    18    38    1
    38    19    20   ar
    39    19    39    1
    40    20    21   ar
    41    20    40    1
    42    21    22   ar
    43    21    41    1
    44    22    42    1
    45    24    25    1
    46    24    43    1
    47    24    44    1
    48    25    45    1
    49    25    46    1
@<TRIPOS>SUBSTRUCTURE
     1 ZINC000081577146        1 TEMP              0 ****  ****    0 ROOT


##########                                Name:    ZINC000054627026
##########                DOCK_Rotatable_Bonds:                   5
##########                         Heavy_Atoms:                  28
##########                    Molecular_Weight:              370.37
##########                DOCK_Rotatable_Bonds:                   5
##########                       Formal_Charge:         6.85453e-07
##########                     HBond_Acceptors:                   8
##########                        HBond_Donors:                   2
##########                         Heavy_Atoms:                  28
##########                          Grid_Score:          -29.748627
##########                     Grid_vdw_energy:          -30.144148
##########                      Grid_es_energy:            0.395521
##########           Internal_energy_repulsive:            4.138959

@<TRIPOS>MOLECULE
ZINC000054627026
 42 46 1 0 0
SMALL
USER_CHARGES


@<TRIPOS>ATOM
      1 O1         -7.9152    1.5068   54.3702 O.2     1  ZINC000054627026   -0.5200
      2 C2         -8.5625    0.5692   53.9451 C.2     1  ZINC000054627026    0.6100
      3 N3         -8.4871    0.2340   52.6419 N.am    1  ZINC000054627026   -0.6500
      4 C4         -7.6677    0.9690   51.7760 C.ar    1  ZINC000054627026    0.1400
      5 C5         -8.1664    2.1115   51.1536 C.ar    1  ZINC000054627026   -0.0900
      6 C6         -7.3703    2.8442   50.2994 C.ar    1  ZINC000054627026   -0.0900
      7 C7         -6.0643    2.4447   50.0556 C.ar    1  ZINC000054627026    0.0500
      8 N8         -5.0398    2.9484   49.2732 N.pl3   1  ZINC000054627026   -0.5900
      9 C9         -3.9616    2.1170   49.4341 C.2     1  ZINC000054627026    0.3700
     10 C10        -2.6564    2.2870   48.7789 C.2     1  ZINC000054627026    0.0200
     11 C11        -1.7304    3.2426   49.0751 C.2     1  ZINC000054627026   -0.1200
     12 C12        -0.6416    3.0331   48.2096 C.2     1  ZINC000054627026   -0.2200
     13 C13        -0.9497    1.9723   47.4347 C.2     1  ZINC000054627026   -0.0100
     14 O14        -2.1640    1.5216   47.7844 O.3     1  ZINC000054627026   -0.1700
     15 N15        -4.2712    1.1456   50.2627 N.2     1  ZINC000054627026   -0.4600
     16 C16        -5.5522    1.2928   50.6794 C.ar    1  ZINC000054627026    0.0700
     17 C17        -6.3670    0.5601   51.5481 C.ar    1  ZINC000054627026   -0.0900
     18 C18        -9.4254   -0.2049   54.8569 C.2     1  ZINC000054627026   -0.1000
     19 C19        -9.7249    0.1279   56.1478 C.2     1  ZINC000054627026    0.1000
     20 N20       -10.5392   -0.8403   56.6215 N.pl3   1  ZINC000054627026   -0.3100
     21 C21       -11.0966   -0.9097   57.9063 C.ar    1  ZINC000054627026    0.1300
     22 C22       -11.9093   -1.9799   58.2550 C.ar    1  ZINC000054627026   -0.1200
     23 C23       -12.4566   -2.0458   59.5214 C.ar    1  ZINC000054627026   -0.1000
     24 C24       -12.1960   -1.0470   60.4416 C.ar    1  ZINC000054627026   -0.1100
     25 C25       -11.3873    0.0204   60.0970 C.ar    1  ZINC000054627026   -0.1000
     26 C26       -10.8323    0.0886   58.8341 C.ar    1  ZINC000054627026   -0.1000
     27 N27       -10.7200   -1.7621   55.5806 N.2     1  ZINC000054627026   -0.0500
     28 N28       -10.0549   -1.3540   54.5565 N.2     1  ZINC000054627026   -0.2000
     29 H29        -9.0002   -0.5165   52.3036 H       1  ZINC000054627026    0.4200
     30 H30        -9.1828    2.4245   51.3413 H       1  ZINC000054627026    0.1500
     31 H31        -7.7632    3.7287   49.8199 H       1  ZINC000054627026    0.1300
     32 H32        -5.0777    3.7409   48.7151 H       1  ZINC000054627026    0.4300
     33 H33        -1.8164    4.0120   49.8281 H       1  ZINC000054627026    0.1600
     34 H34         0.2692    3.6123   48.1721 H       1  ZINC000054627026    0.1600
     35 H35        -0.3212    1.5533   46.6628 H       1  ZINC000054627026    0.2100
     36 H36        -5.9828   -0.3232   52.0367 H       1  ZINC000054627026    0.1400
     37 H37        -9.3773    0.9973   56.6859 H       1  ZINC000054627026    0.2100
     38 H38       -12.1137   -2.7600   57.5366 H       1  ZINC000054627026    0.1400
     39 H39       -13.0888   -2.8781   59.7932 H       1  ZINC000054627026    0.1400
     40 H40       -12.6253   -1.1005   61.4311 H       1  ZINC000054627026    0.1400
     41 H41       -11.1859    0.7992   60.8176 H       1  ZINC000054627026    0.1400
     42 H42       -10.2007    0.9226   58.5656 H       1  ZINC000054627026    0.1400
@<TRIPOS>BOND
     1     1     2    2
     2     2     3   am
     3     2    18    1
     4     3     4    1
     5     3    29    1
     6     4    17   ar
     7     4     5   ar
     8     5     6   ar
     9     5    30    1
    10     6     7   ar
    11     6    31    1
    12     7    16   ar
    13     7     8    1
    14     8     9    1
    15     8    32    1
    16     9    10    1
    17     9    15    2
    18    10    14    1
    19    10    11    2
    20    11    12    1
    21    11    33    1
    22    12    13    2
    23    12    34    1
    24    13    14    1
    25    13    35    1
    26    15    16    1
    27    16    17   ar
    28    17    36    1
    29    18    28    1
    30    18    19    2
    31    19    20    1
    32    19    37    1
    33    20    21    1
    34    20    27    1
    35    21    26   ar
    36    21    22   ar
    37    22    23   ar
    38    22    38    1
    39    23    24   ar
    40    23    39    1
    41    24    25   ar
    42    24    40    1
    43    25    26   ar
    44    25    41    1
    45    26    42    1
    46    27    28    2
@<TRIPOS>SUBSTRUCTURE
     1 ZINC000054627026        1 TEMP              0 ****  ****    0 ROOT


##########                                Name:    ZINC000493443319
##########                DOCK_Rotatable_Bonds:                   6
##########                         Heavy_Atoms:                  25
##########                    Molecular_Weight:             348.399
##########                DOCK_Rotatable_Bonds:                   6
##########                       Formal_Charge:        -3.27826e-07
##########                     HBond_Acceptors:                   7
##########                        HBond_Donors:                   0
##########                         Heavy_Atoms:                  25
##########                          Grid_Score:          -29.745316
##########                     Grid_vdw_energy:          -29.380182
##########                      Grid_es_energy:           -0.365134
##########           Internal_energy_repulsive:           59.217850

@<TRIPOS>MOLECULE
ZINC000493443319
 49 51 1 0 0
SMALL
USER_CHARGES


@<TRIPOS>ATOM
      1 C1         -8.2154   -1.0766   59.4227 C.3     1  <0>        -0.1500
      2 C2         -7.7399    0.3372   59.7633 C.3     1  <0>         0.0500
      3 O3         -8.7495    1.2802   59.3981 O.3     1  <0>        -0.3200
      4 C4         -8.9025    1.5383   58.0718 C.ar    1  <0>         0.1000
      5 C5         -8.0400    0.9643   57.1496 C.ar    1  <0>        -0.1700
      6 C6         -8.1953    1.2264   55.8023 C.ar    1  <0>        -0.1100
      7 C7         -9.2141    2.0633   55.3717 C.ar    1  <0>         0.0800
      8 O8         -9.3669    2.3217   54.0453 O.3     1  <0>        -0.3000
      9 C9         -9.9679    1.2978   53.2500 C.3     1  <0>         0.1000
     10 C10       -11.0515    0.5889   54.0650 C.3     1  <0>        -0.1800
     11 C11       -10.5951    1.9232   52.0025 C.3     1  <0>        -0.1500
     12 C12        -8.9165    0.3001   52.8373 C.2     1  <0>         0.5100
     13 O13        -9.1098   -0.8863   52.9985 O.2     1  <0>        -0.5200
     14 N14        -7.7614    0.7263   52.2891 N.am    1  <0>        -0.6000
     15 C15        -6.7351   -0.2431   51.8860 C.3     1  <0>         0.0700
     16 C16        -6.4095   -0.0396   50.3976 C.3     1  <0>         0.1300
     17 N17        -6.2419    1.4038   50.1782 N.am    1  <0>        -0.6300
     18 C18        -5.2119    2.0424   49.6205 C.2     1  <0>         0.6500
     19 O19        -4.3042    1.4703   49.0503 O.2     1  <0>        -0.5200
     20 O20        -5.2734    3.3747   49.7492 O.3     1  <0>        -0.3200
     21 C21        -6.5258    3.7430   50.3995 C.3     1  <0>         0.0500
     22 C22        -7.2482    2.4012   50.6020 C.3     1  <0>         0.0800
     23 H23        -8.1543    2.3391   49.9993 H       1  <0>         0.1100
     24 C24        -7.5268    2.1643   52.0867 C.3     1  <0>         0.1000
     25 C25       -10.0774    2.6362   56.2937 C.ar    1  <0>        -0.1800
     26 C26        -9.9244    2.3710   57.6407 C.ar    1  <0>        -0.1100
     27 H27        -7.4453   -1.7959   59.7012 H       1  <0>         0.0800
     28 H28        -9.1314   -1.2941   59.9719 H       1  <0>         0.0700
     29 H29        -8.4082   -1.1470   58.3522 H       1  <0>         0.0700
     30 H30        -7.5470    0.4076   60.8338 H       1  <0>         0.0600
     31 H31        -6.8239    0.5546   59.2140 H       1  <0>         0.0600
     32 H32        -7.2467    0.3127   57.4850 H       1  <0>         0.1400
     33 H33        -7.5234    0.7800   55.0843 H       1  <0>         0.1400
     34 H34       -11.8751    1.2782   54.2514 H       1  <0>         0.0800
     35 H35       -11.4185   -0.2737   53.5089 H       1  <0>         0.0900
     36 H36       -10.6330    0.2575   55.0154 H       1  <0>         0.0800
     37 H37        -9.8418    2.5026   51.4687 H       1  <0>         0.0800
     38 H38       -10.9751    1.1349   51.3527 H       1  <0>         0.0900
     39 H39       -11.4153    2.5777   52.2974 H       1  <0>         0.0900
     40 H40        -5.8346   -0.0891   52.4805 H       1  <0>         0.0800
     41 H41        -7.1081   -1.2553   52.0425 H       1  <0>         0.1300
     42 H42        -5.4868   -0.5624   50.1452 H       1  <0>         0.1100
     43 H43        -7.2287   -0.4149   49.7843 H       1  <0>         0.0800
     44 H44        -6.3316    4.2211   51.3596 H       1  <0>         0.1100
     45 H45        -7.1119    4.3994   49.7562 H       1  <0>         0.1100
     46 H46        -8.4093    2.7275   52.3901 H       1  <0>         0.1100
     47 H47        -6.6668    2.4797   52.6775 H       1  <0>         0.0800
     48 H48       -10.8710    3.2876   55.9583 H       1  <0>         0.1600
     49 H49       -10.5967    2.8171   58.3586 H       1  <0>         0.1300
@<TRIPOS>BOND
     1     1     2    1
     2     1    27    1
     3     1    28    1
     4     1    29    1
     5     2     3    1
     6     2    30    1
     7     2    31    1
     8     3     4    1
     9     4    26   ar
    10     4     5   ar
    11     5     6   ar
    12     5    32    1
    13     6     7   ar
    14     6    33    1
    15     7     8    1
    16     7    25   ar
    17     8     9    1
    18     9    10    1
    19     9    11    1
    20     9    12    1
    21    10    34    1
    22    10    35    1
    23    10    36    1
    24    11    37    1
    25    11    38    1
    26    11    39    1
    27    12    13    2
    28    12    14   am
    29    14    24    1
    30    14    15    1
    31    15    16    1
    32    15    40    1
    33    15    41    1
    34    16    17    1
    35    16    42    1
    36    16    43    1
    37    17    22    1
    38    17    18   am
    39    18    19    2
    40    18    20    1
    41    20    21    1
    42    21    22    1
    43    21    44    1
    44    21    45    1
    45    22    23    1
    46    22    24    1
    47    24    46    1
    48    24    47    1
    49    25    26   ar
    50    25    48    1
    51    26    49    1
@<TRIPOS>SUBSTRUCTURE
     1 <0>         1 TEMP              0 ****  ****    0 ROOT


##########                                Name:    ZINC001074839487
##########                DOCK_Rotatable_Bonds:                   7
##########                         Heavy_Atoms:                  25
##########                    Molecular_Weight:             344.454
##########                DOCK_Rotatable_Bonds:                   7
##########                       Formal_Charge:          -0.0500005
##########                     HBond_Acceptors:                   5
##########                        HBond_Donors:                   1
##########                         Heavy_Atoms:                  25
##########                          Grid_Score:          -29.744478
##########                     Grid_vdw_energy:          -28.963526
##########                      Grid_es_energy:           -0.780953
##########           Internal_energy_repulsive:           94.227608

@<TRIPOS>MOLECULE
ZINC001074839487
 53 55 1 0 0
SMALL
USER_CHARGES


@<TRIPOS>ATOM
      1 C1         -2.0568    3.8081   53.2416 C.3     1  ZINC001074839487   -0.1500
      2 C2         -1.8969    2.9400   51.9920 C.3     1  ZINC001074839487   -0.1300
      3 C3         -2.1147    3.7976   50.7438 C.3     1  ZINC001074839487   -0.1100
      4 C4         -1.9101    2.9398   49.4935 C.3     1  ZINC001074839487   -0.1400
      5 C5         -3.1976    2.2354   49.1514 C.2     1  ZINC001074839487    0.5100
      6 O6         -3.4061    1.8716   48.0133 O.2     1  ZINC001074839487   -0.5400
      7 N7         -4.1175    2.0094   50.1102 N.am    1  ZINC001074839487   -0.7300
      8 C8         -5.3683    1.3230   49.7780 C.3     1  ZINC001074839487    0.1400
      9 H9         -5.1844    0.5951   48.9877 H       1  ZINC001074839487    0.0900
     10 C10        -5.9008    0.6040   51.0197 C.3     1  ZINC001074839487   -0.1500
     11 C11        -6.1257    1.6253   52.1391 C.3     1  ZINC001074839487    0.0700
     12 N12        -7.0026    2.6918   51.6369 N.am    1  ZINC001074839487   -0.6000
     13 C13        -8.1276    3.0251   52.3003 C.2     1  ZINC001074839487    0.5600
     14 O14        -8.8447    3.9094   51.8747 O.2     1  ZINC001074839487   -0.5200
     15 C15        -8.4892    2.3152   53.5457 C.ar    1  ZINC001074839487   -0.1300
     16 C16        -9.5172    1.3714   53.5410 C.ar    1  ZINC001074839487   -0.1000
     17 C17        -9.8508    0.7116   54.7067 C.ar    1  ZINC001074839487   -0.1000
     18 C18        -9.1692    0.9841   55.8763 C.ar    1  ZINC001074839487   -0.1100
     19 C19        -9.2952    0.4427   57.2817 C.3     1  ZINC001074839487    0.0900
     20 O20        -8.6233    1.3894   58.1324 O.3     1  ZINC001074839487   -0.3600
     21 C21        -7.6119    1.9854   57.2997 C.3     1  ZINC001074839487    0.0900
     22 C22        -8.1459    1.9218   55.8876 C.ar    1  ZINC001074839487   -0.1400
     23 C23        -7.7997    2.5825   54.7306 C.ar    1  ZINC001074839487   -0.0400
     24 C24        -6.6304    3.3877   50.3977 C.3     1  ZINC001074839487    0.1500
     25 H25        -5.7152    3.9574   50.5593 H       1  ZINC001074839487    0.0700
     26 C26        -7.7593    4.3326   49.9810 C.3     1  ZINC001074839487   -0.1400
     27 C27        -6.3997    2.3467   49.2978 C.3     1  ZINC001074839487   -0.1400
     28 H28        -1.3221    4.6131   53.2212 H       1  ZINC001074839487    0.0500
     29 H29        -1.9017    3.1971   54.1309 H       1  ZINC001074839487    0.0500
     30 H30        -3.0605    4.2327   53.2631 H       1  ZINC001074839487    0.0500
     31 H31        -0.8933    2.5153   51.9705 H       1  ZINC001074839487    0.0600
     32 H32        -2.6317    2.1350   52.0124 H       1  ZINC001074839487    0.0600
     33 H33        -3.1293    4.1959   50.7492 H       1  ZINC001074839487    0.0700
     34 H34        -1.4009    4.6214   50.7400 H       1  ZINC001074839487    0.0700
     35 H35        -1.6120    3.5768   48.6608 H       1  ZINC001074839487    0.0900
     36 H36        -1.1312    2.2013   49.6831 H       1  ZINC001074839487    0.0900
     37 H37        -3.9513    2.3014   51.0201 H       1  ZINC001074839487    0.4000
     38 H38        -6.8441    0.1136   50.7796 H       1  ZINC001074839487    0.0800
     39 H39        -5.1758   -0.1412   51.3473 H       1  ZINC001074839487    0.0800
     40 H40        -6.5969    1.1355   52.9912 H       1  ZINC001074839487    0.1200
     41 H41        -5.1694    2.0512   52.4427 H       1  ZINC001074839487    0.0700
     42 H42       -10.0506    1.1572   52.6266 H       1  ZINC001074839487    0.1500
     43 H43       -10.6460   -0.0193   54.7039 H       1  ZINC001074839487    0.1400
     44 H44       -10.3458    0.3657   57.5617 H       1  ZINC001074839487    0.1000
     45 H45        -8.8145   -0.5331   57.3527 H       1  ZINC001074839487    0.0800
     46 H46        -7.4473    3.0223   57.5926 H       1  ZINC001074839487    0.1000
     47 H47        -6.6825    1.4210   57.3755 H       1  ZINC001074839487    0.0800
     48 H48        -7.0001    3.3083   54.7398 H       1  ZINC001074839487    0.1400
     49 H49        -7.8506    5.1348   50.7134 H       1  ZINC001074839487    0.0800
     50 H50        -7.5349    4.7576   49.0027 H       1  ZINC001074839487    0.0500
     51 H51        -8.6966    3.7786   49.9302 H       1  ZINC001074839487    0.0700
     52 H52        -6.0300    2.8418   48.3999 H       1  ZINC001074839487    0.0900
     53 H53        -7.3384    1.8398   49.0740 H       1  ZINC001074839487    0.0900
@<TRIPOS>BOND
     1     1     2    1
     2     1    28    1
     3     1    29    1
     4     1    30    1
     5     2     3    1
     6     2    31    1
     7     2    32    1
     8     3     4    1
     9     3    33    1
    10     3    34    1
    11     4     5    1
    12     4    35    1
    13     4    36    1
    14     5     6    2
    15     5     7   am
    16     7     8    1
    17     7    37    1
    18     8     9    1
    19     8    27    1
    20     8    10    1
    21    10    11    1
    22    10    38    1
    23    10    39    1
    24    11    12    1
    25    11    40    1
    26    11    41    1
    27    12    13   am
    28    12    24    1
    29    13    14    2
    30    13    15    1
    31    15    23   ar
    32    15    16   ar
    33    16    17   ar
    34    16    42    1
    35    17    18   ar
    36    17    43    1
    37    18    22   ar
    38    18    19    1
    39    19    20    1
    40    19    44    1
    41    19    45    1
    42    20    21    1
    43    21    22    1
    44    21    46    1
    45    21    47    1
    46    22    23   ar
    47    23    48    1
    48    24    25    1
    49    24    26    1
    50    24    27    1
    51    26    49    1
    52    26    50    1
    53    26    51    1
    54    27    52    1
    55    27    53    1
@<TRIPOS>SUBSTRUCTURE
     1 ZINC001074839487        1 TEMP              0 ****  ****    0 ROOT


##########                                Name:    ZINC000245764166
##########                DOCK_Rotatable_Bonds:                   8
##########                         Heavy_Atoms:                  26
##########                    Molecular_Weight:             359.512
##########                DOCK_Rotatable_Bonds:                   8
##########                       Formal_Charge:          -0.0100008
##########                     HBond_Acceptors:                   5
##########                        HBond_Donors:                   2
##########                         Heavy_Atoms:                  26
##########                          Grid_Score:          -29.728584
##########                     Grid_vdw_energy:          -29.738865
##########                      Grid_es_energy:            0.010280
##########           Internal_energy_repulsive:           29.572542

@<TRIPOS>MOLECULE
ZINC000245764166
 59 61 1 0 0
SMALL
USER_CHARGES


@<TRIPOS>ATOM
      1 C1         -9.6065   -1.0521   58.3933 C.3     1  ZINC000245764166    0.0200
      2 N2         -8.8574    0.0207   59.0609 N.3     1  ZINC000245764166   -0.5300
      3 C3         -7.9908   -0.5204   60.1164 C.3     1  ZINC000245764166    0.0600
      4 C4         -8.6252   -0.2764   61.4615 C.ar    1  ZINC000245764166   -0.0800
      5 C5         -9.9679    0.0416   61.5447 C.ar    1  ZINC000245764166   -0.1000
      6 C6        -10.5499    0.2655   62.7784 C.ar    1  ZINC000245764166   -0.1200
      7 C7         -9.7895    0.1709   63.9289 C.ar    1  ZINC000245764166   -0.1200
      8 C8         -8.4469   -0.1481   63.8457 C.ar    1  ZINC000245764166   -0.1200
      9 C9         -7.8659   -0.3761   62.6122 C.ar    1  ZINC000245764166   -0.1200
     10 C10        -8.0795    0.8023   58.0903 C.3     1  ZINC000245764166    0.0500
     11 C11        -8.7476    2.1623   57.8782 C.3     1  ZINC000245764166    0.1900
     12 C12       -10.0920    2.1895   58.6082 C.3     1  ZINC000245764166   -0.1600
     13 C13        -7.8444    3.2662   58.4315 C.3     1  ZINC000245764166   -0.1500
     14 N14        -8.9651    2.3813   56.4461 N.am    1  ZINC000245764166   -0.7400
     15 C15        -7.9279    2.3111   55.5884 C.2     1  ZINC000245764166    0.7000
     16 O16        -6.8113    2.0675   56.0034 O.2     1  ZINC000245764166   -0.5800
     17 N17        -8.1283    2.5110   54.2706 N.am    1  ZINC000245764166   -0.7500
     18 C18        -7.0004    2.4364   53.3387 C.3     1  ZINC000245764166    0.1800
     19 H19        -6.2976    1.6791   53.6859 H       1  ZINC000245764166    0.0900
     20 C20        -6.2972    3.7906   53.2915 C.3     1  ZINC000245764166   -0.1300
     21 C21        -5.0852    3.6801   52.3598 C.3     1  ZINC000245764166   -0.1100
     22 C22        -5.5886    3.3709   50.9501 C.3     1  ZINC000245764166   -0.1100
     23 C23        -6.3777    2.0831   50.9173 C.3     1  ZINC000245764166    0.0900
     24 H24        -6.8154    1.9600   49.9267 H       1  ZINC000245764166    0.0600
     25 O25        -5.5825    0.9292   51.2212 O.3     1  ZINC000245764166   -0.3600
     26 C26        -6.5120   -0.1347   51.5073 C.3     1  ZINC000245764166    0.0500
     27 C27        -7.8176    0.5181   52.0049 C.3     1  ZINC000245764166   -0.1500
     28 C28        -7.5175    2.0458   51.9525 C.3     1  ZINC000245764166   -0.1300
     29 H29        -8.3822    2.6325   51.6423 H       1  ZINC000245764166    0.1000
     30 H30       -10.1870   -1.6044   59.1324 H       1  ZINC000245764166    0.0800
     31 H31       -10.2790   -0.6193   57.6528 H       1  ZINC000245764166    0.0700
     32 H32        -8.9094   -1.7291   57.8992 H       1  ZINC000245764166    0.0200
     33 H33        -7.8601   -1.5920   59.9655 H       1  ZINC000245764166    0.0400
     34 H34        -7.0196   -0.0270   60.0779 H       1  ZINC000245764166    0.1100
     35 H35       -10.5621    0.1155   60.6459 H       1  ZINC000245764166    0.1200
     36 H36       -11.5989    0.5147   62.8435 H       1  ZINC000245764166    0.1200
     37 H37       -10.2440    0.3465   64.8926 H       1  ZINC000245764166    0.1200
     38 H38        -7.8527   -0.2217   64.7444 H       1  ZINC000245764166    0.1200
     39 H39        -6.8171   -0.6253   62.5472 H       1  ZINC000245764166    0.1200
     40 H40        -7.0682    0.9495   58.4693 H       1  ZINC000245764166    0.0400
     41 H41        -8.0377    0.2662   57.1421 H       1  ZINC000245764166    0.1000
     42 H42        -9.9301    2.0265   59.6737 H       1  ZINC000245764166    0.0700
     43 H43       -10.5680    3.1584   58.4570 H       1  ZINC000245764166    0.0800
     44 H44       -10.7355    1.4030   58.2140 H       1  ZINC000245764166    0.0500
     45 H45        -6.9364    3.3276   57.8314 H       1  ZINC000245764166    0.0600
     46 H46        -8.3707    4.2199   58.3927 H       1  ZINC000245764166    0.0800
     47 H47        -7.5823    3.0375   59.4645 H       1  ZINC000245764166    0.0600
     48 H48        -9.8558    2.5769   56.1150 H       1  ZINC000245764166    0.3900
     49 H49        -9.0192    2.7042   53.9394 H       1  ZINC000245764166    0.3900
     50 H50        -6.9840    4.5464   52.9103 H       1  ZINC000245764166    0.0600
     51 H51        -5.9653    4.0656   54.2925 H       1  ZINC000245764166    0.0700
     52 H52        -4.5379    4.6228   52.3558 H       1  ZINC000245764166    0.0700
     53 H53        -4.4318    2.8771   52.7009 H       1  ZINC000245764166    0.0700
     54 H54        -6.2254    4.1881   50.6114 H       1  ZINC000245764166    0.0800
     55 H55        -4.7350    3.2833   50.2778 H       1  ZINC000245764166    0.0700
     56 H56        -6.7069   -0.7098   50.6022 H       1  ZINC000245764166    0.0600
     57 H57        -6.1042   -0.7849   52.2813 H       1  ZINC000245764166    0.0800
     58 H58        -8.6465    0.2687   51.3424 H       1  ZINC000245764166    0.0800
     59 H59        -8.0360    0.2062   53.0262 H       1  ZINC000245764166    0.0800
@<TRIPOS>BOND
     1     1     2    1
     2     1    30    1
     3     1    31    1
     4     1    32    1
     5     2     3    1
     6     2    10    1
     7     3     4    1
     8     3    33    1
     9     3    34    1
    10     4     9   ar
    11     4     5   ar
    12     5     6   ar
    13     5    35    1
    14     6     7   ar
    15     6    36    1
    16     7     8   ar
    17     7    37    1
    18     8     9   ar
    19     8    38    1
    20     9    39    1
    21    10    11    1
    22    10    40    1
    23    10    41    1
    24    11    12    1
    25    11    13    1
    26    11    14    1
    27    12    42    1
    28    12    43    1
    29    12    44    1
    30    13    45    1
    31    13    46    1
    32    13    47    1
    33    14    15   am
    34    14    48    1
    35    15    16    2
    36    15    17   am
    37    17    18    1
    38    17    49    1
    39    18    19    1
    40    18    28    1
    41    18    20    1
    42    20    21    1
    43    20    50    1
    44    20    51    1
    45    21    22    1
    46    21    52    1
    47    21    53    1
    48    22    23    1
    49    22    54    1
    50    22    55    1
    51    23    24    1
    52    23    28    1
    53    23    25    1
    54    25    26    1
    55    26    27    1
    56    26    56    1
    57    26    57    1
    58    27    28    1
    59    27    58    1
    60    27    59    1
    61    28    29    1
@<TRIPOS>SUBSTRUCTURE
     1 ZINC000245764166        1 TEMP              0 ****  ****    0 ROOT


##########                                Name:    ZINC000182378855
##########                DOCK_Rotatable_Bonds:                   8
##########                         Heavy_Atoms:                  27
##########                    Molecular_Weight:              394.83
##########                DOCK_Rotatable_Bonds:                   8
##########                       Formal_Charge:          -0.0200001
##########                     HBond_Acceptors:                   8
##########                        HBond_Donors:                   1
##########                         Heavy_Atoms:                  27
##########                          Grid_Score:          -29.714159
##########                     Grid_vdw_energy:          -29.198641
##########                      Grid_es_energy:           -0.515517
##########           Internal_energy_repulsive:           12.192793

@<TRIPOS>MOLECULE
ZINC000182378855
 47 49 1 0 0
SMALL
USER_CHARGES


@<TRIPOS>ATOM
      1 C1        -13.5147    1.0352   51.9377 C.3     1  ZINC000182378855    0.0300
      2 O2        -12.7572    1.1110   50.7284 O.3     1  ZINC000182378855   -0.3900
      3 C3        -13.3243    1.9738   49.7404 C.3     1  ZINC000182378855    0.0600
      4 C4        -13.3217    3.4134   50.2584 C.3     1  ZINC000182378855    0.0700
      5 O5        -12.0299    3.7292   50.7816 O.3     1  ZINC000182378855   -0.2900
      6 C6        -11.0765    4.0962   49.8888 C.ar    1  ZINC000182378855    0.3300
      7 C7         -9.7375    4.0362   50.2511 C.ar    1  ZINC000182378855   -0.1300
      8 C8         -8.7681    4.4172   49.3214 C.ar    1  ZINC000182378855   -0.0600
      9 C9         -7.3270    4.3696   49.6621 C.2     1  ZINC000182378855    0.5600
     10 O10        -6.6364    5.3594   49.5214 O.2     1  ZINC000182378855   -0.5200
     11 N11        -6.7821    3.2284   50.1281 N.am    1  ZINC000182378855   -0.7100
     12 C12        -5.3575    3.1818   50.4667 C.3     1  ZINC000182378855    0.1200
     13 H13        -5.0602    4.0910   50.9891 H       1  ZINC000182378855    0.1100
     14 C14        -4.5045    2.9854   49.1934 C.3     1  ZINC000182378855   -0.1700
     15 C15        -3.7779    1.6432   49.4317 C.3     1  ZINC000182378855    0.0400
     16 O16        -4.6105    0.9354   50.3760 O.3     1  ZINC000182378855   -0.3600
     17 C17        -5.0454    1.9349   51.3236 C.3     1  ZINC000182378855    0.1100
     18 H18        -4.2501    2.1537   52.0362 H       1  ZINC000182378855    0.1000
     19 C19        -6.2844    1.4702   52.0446 C.ar    1  ZINC000182378855   -0.0500
     20 C20        -6.6494    2.0595   53.2404 C.ar    1  ZINC000182378855   -0.1100
     21 C21        -7.7890    1.6384   53.9006 C.ar    1  ZINC000182378855   -0.0800
     22 C22        -8.5587    0.6193   53.3704 C.ar    1  ZINC000182378855   -0.0700
     23 Cl23       -9.9860    0.0860   54.2023 Cl      1  ZINC000182378855   -0.0400
     24 C24        -8.1901    0.0243   52.1743 C.ar    1  ZINC000182378855    0.1200
     25 F25        -8.9411   -0.9713   51.6547 F       1  ZINC000182378855   -0.1200
     26 C26        -7.0521    0.4512   51.5123 C.ar    1  ZINC000182378855   -0.1300
     27 C27        -9.1941    4.8449   48.0590 C.ar    1  ZINC000182378855   -0.1900
     28 C28       -10.5456    4.8746   47.7804 C.ar    1  ZINC000182378855    0.1400
     29 N29       -11.4328    4.5019   48.6821 N.ar    1  ZINC000182378855   -0.5200
     30 H30       -14.5138    0.6593   51.7176 H       1  ZINC000182378855    0.0400
     31 H31       -13.0183    0.3610   52.6356 H       1  ZINC000182378855    0.0900
     32 H32       -13.5896    2.0276   52.3823 H       1  ZINC000182378855    0.0400
     33 H33       -12.7345    1.9158   48.8256 H       1  ZINC000182378855    0.0600
     34 H34       -14.3486    1.6643   49.5326 H       1  ZINC000182378855    0.0700
     35 H35       -13.5589    4.0942   49.4409 H       1  ZINC000182378855    0.0800
     36 H36       -14.0680    3.5175   51.0461 H       1  ZINC000182378855    0.0800
     37 H37        -9.4503    3.7004   51.2365 H       1  ZINC000182378855    0.1600
     38 H38        -7.3331    2.4379   50.2392 H       1  ZINC000182378855    0.4000
     39 H39        -5.1428    2.9230   48.3121 H       1  ZINC000182378855    0.0900
     40 H40        -3.7838    3.7963   49.0877 H       1  ZINC000182378855    0.0900
     41 H41        -3.7005    1.0830   48.4999 H       1  ZINC000182378855    0.1000
     42 H42        -2.7876    1.8172   49.8523 H       1  ZINC000182378855    0.0700
     43 H43        -6.0461    2.8523   53.6575 H       1  ZINC000182378855    0.1500
     44 H44        -8.0756    2.1026   54.8326 H       1  ZINC000182378855    0.1500
     45 H45        -6.7639   -0.0115   50.5799 H       1  ZINC000182378855    0.1500
     46 H46        -8.4748    5.1475   47.3124 H       1  ZINC000182378855    0.1400
     47 H47       -10.8812    5.2035   46.8080 H       1  ZINC000182378855    0.1700
@<TRIPOS>BOND
     1     1     2    1
     2     1    30    1
     3     1    31    1
     4     1    32    1
     5     2     3    1
     6     3     4    1
     7     3    33    1
     8     3    34    1
     9     4     5    1
    10     4    35    1
    11     4    36    1
    12     5     6    1
    13     6    29   ar
    14     6     7   ar
    15     7     8   ar
    16     7    37    1
    17     8     9    1
    18     8    27   ar
    19     9    10    2
    20     9    11   am
    21    11    12    1
    22    11    38    1
    23    12    13    1
    24    12    17    1
    25    12    14    1
    26    14    15    1
    27    14    39    1
    28    14    40    1
    29    15    16    1
    30    15    41    1
    31    15    42    1
    32    16    17    1
    33    17    18    1
    34    17    19    1
    35    19    26   ar
    36    19    20   ar
    37    20    21   ar
    38    20    43    1
    39    21    22   ar
    40    21    44    1
    41    22    23    1
    42    22    24   ar
    43    24    25    1
    44    24    26   ar
    45    26    45    1
    46    27    28   ar
    47    27    46    1
    48    28    29   ar
    49    28    47    1
@<TRIPOS>SUBSTRUCTURE
     1 ZINC000182378855        1 TEMP              0 ****  ****    0 ROOT


##########                                Name:    ZINC000530457945
##########                DOCK_Rotatable_Bonds:                   4
##########                         Heavy_Atoms:                  25
##########                    Molecular_Weight:             355.827
##########                DOCK_Rotatable_Bonds:                   4
##########                       Formal_Charge:           0.0199997
##########                     HBond_Acceptors:                   7
##########                        HBond_Donors:                   1
##########                         Heavy_Atoms:                  25
##########                          Grid_Score:          -29.691816
##########                     Grid_vdw_energy:          -29.678795
##########                      Grid_es_energy:           -0.013021
##########           Internal_energy_repulsive:           29.817478

@<TRIPOS>MOLECULE
ZINC000530457945
 43 46 1 0 0
SMALL
USER_CHARGES


@<TRIPOS>ATOM
      1 C1         -7.7451    3.2976   52.1613 C.3     1  ZINC000530457945   -0.1700
      2 C2         -7.0544    1.9477   52.3650 C.3     1  ZINC000530457945    0.0900
      3 H3         -6.1202    2.0876   52.9089 H       1  ZINC000530457945    0.1100
      4 C4         -6.7724    1.2906   50.9975 C.3     1  ZINC000530457945   -0.1200
      5 H5         -7.4492    1.6788   50.2364 H       1  ZINC000530457945    0.1100
      6 C6         -5.3372    1.5034   50.5900 C.2     1  ZINC000530457945    0.5300
      7 O7         -4.4394    1.1030   51.3002 O.2     1  ZINC000530457945   -0.4700
      8 N8         -5.0515    2.1389   49.4362 N.am    1  ZINC000530457945   -0.6200
      9 C9         -3.7215    2.3376   49.0593 C.2     1  ZINC000530457945    0.4800
     10 N10        -3.1695    1.8872   47.9509 N.2     1  ZINC000530457945   -0.3000
     11 N11        -1.8307    2.3040   47.9589 N.pl3   1  ZINC000530457945   -0.2800
     12 C12        -0.8008    2.1346   47.0885 C.2     1  ZINC000530457945    0.1400
     13 C13         0.4183    2.6587   47.3544 C.2     1  ZINC000530457945   -0.0800
     14 Cl14        1.7219    2.4318   46.2307 Cl      1  ZINC000530457945   -0.0200
     15 C15         0.6312    3.3854   48.5356 C.2     1  ZINC000530457945   -0.0500
     16 C16        -0.3964    3.5599   49.4127 C.2     1  ZINC000530457945   -0.0900
     17 C17        -1.6548    3.0065   49.1170 C.2     1  ZINC000530457945    0.3000
     18 N18        -2.8182    3.0152   49.7605 N.2     1  ZINC000530457945   -0.5500
     19 C19        -7.0532   -0.2112   51.2667 C.3     1  ZINC000530457945   -0.1200
     20 C20        -8.2384   -0.1346   52.2613 C.3     1  ZINC000530457945    0.0400
     21 N21        -7.9404    1.0391   53.1155 N.3     1  ZINC000530457945   -0.4900
     22 C22        -9.1153    1.6898   53.4994 C.ar    1  ZINC000530457945    0.1000
     23 C23        -9.2773    2.1180   54.8108 C.ar    1  ZINC000530457945   -0.1600
     24 C24       -10.4399    2.7615   55.1869 C.ar    1  ZINC000530457945   -0.1100
     25 C25       -11.4424    2.9792   54.2596 C.ar    1  ZINC000530457945   -0.1300
     26 C26       -11.2845    2.5543   52.9532 C.ar    1  ZINC000530457945   -0.1100
     27 C27       -10.1220    1.9153   52.5691 C.ar    1  ZINC000530457945   -0.1000
     28 H28        -8.0526    3.6979   53.1274 H       1  ZINC000530457945    0.0700
     29 H29        -7.0530    3.9915   51.6842 H       1  ZINC000530457945    0.0600
     30 H30        -8.6217    3.1652   51.5272 H       1  ZINC000530457945    0.0600
     31 H31        -5.7697    2.4581   48.8676 H       1  ZINC000530457945    0.4300
     32 H32        -0.9564    1.5765   46.1771 H       1  ZINC000530457945    0.1800
     33 H33         1.6039    3.8036   48.7483 H       1  ZINC000530457945    0.1600
     34 H34        -0.2460    4.1168   50.3257 H       1  ZINC000530457945    0.1700
     35 H35        -7.3450   -0.7243   50.3504 H       1  ZINC000530457945    0.0900
     36 H36        -6.1898   -0.6939   51.7247 H       1  ZINC000530457945    0.0900
     37 H37        -9.1754    0.0134   51.7243 H       1  ZINC000530457945    0.0700
     38 H38        -8.2854   -1.0401   52.8660 H       1  ZINC000530457945    0.0900
     39 H39        -8.4950    1.9476   55.5357 H       1  ZINC000530457945    0.1200
     40 H40       -10.5666    3.0947   56.2064 H       1  ZINC000530457945    0.1200
     41 H41       -12.3510    3.4821   54.5564 H       1  ZINC000530457945    0.1200
     42 H42       -12.0694    2.7259   52.2314 H       1  ZINC000530457945    0.1300
     43 H43        -9.9991    1.5839   51.5486 H       1  ZINC000530457945    0.1300
@<TRIPOS>BOND
     1     1     2    1
     2     1    28    1
     3     1    29    1
     4     1    30    1
     5     2     3    1
     6     2    21    1
     7     2     4    1
     8     4     5    1
     9     4     6    1
    10     4    19    1
    11     6     7    2
    12     6     8   am
    13     8     9    1
    14     8    31    1
    15     9    18    1
    16     9    10    2
    17    10    11    1
    18    11    17    1
    19    11    12    1
    20    12    13    2
    21    12    32    1
    22    13    14    1
    23    13    15    1
    24    15    16    2
    25    15    33    1
    26    16    17    1
    27    16    34    1
    28    17    18    2
    29    19    20    1
    30    19    35    1
    31    19    36    1
    32    20    21    1
    33    20    37    1
    34    20    38    1
    35    21    22    1
    36    22    27   ar
    37    22    23   ar
    38    23    24   ar
    39    23    39    1
    40    24    25   ar
    41    24    40    1
    42    25    26   ar
    43    25    41    1
    44    26    27   ar
    45    26    42    1
    46    27    43    1
@<TRIPOS>SUBSTRUCTURE
     1 ZINC000530457945        1 TEMP              0 ****  ****    0 ROOT


##########                                Name:    ZINC000753658424
##########                DOCK_Rotatable_Bonds:                   8
##########                         Heavy_Atoms:                  24
##########                    Molecular_Weight:             332.399
##########                DOCK_Rotatable_Bonds:                   8
##########                       Formal_Charge:        -9.16421e-07
##########                     HBond_Acceptors:                   6
##########                        HBond_Donors:                   3
##########                         Heavy_Atoms:                  24
##########                          Grid_Score:          -29.686991
##########                     Grid_vdw_energy:          -29.755146
##########                      Grid_es_energy:            0.068156
##########           Internal_energy_repulsive:           16.904957

@<TRIPOS>MOLECULE
ZINC000753658424
 48 49 1 0 0
SMALL
USER_CHARGES


@<TRIPOS>ATOM
      1 C1          1.1588    2.2454   49.0583 C.3     1  ZINC000753658424   -0.2000
      2 C2          0.0644    3.2709   48.9114 C.2     1  ZINC000753658424    0.4400
      3 O3          0.3458    4.4432   48.7756 O.2     1  ZINC000753658424   -0.4500
      4 C4         -1.3405    2.8521   48.9325 C.2     1  ZINC000753658424   -0.2500
      5 C5         -2.0228    2.2021   47.9158 C.2     1  ZINC000753658424    0.1000
      6 C6         -1.4454    1.7987   46.5834 C.3     1  ZINC000753658424   -0.1000
      7 N7         -3.2841    1.9930   48.3203 N.pl3   1  ZINC000753658424   -0.5300
      8 C8         -3.4440    2.4973   49.5931 C.2     1  ZINC000753658424   -0.0600
      9 C9         -4.6822    2.4622   50.3819 C.2     1  ZINC000753658424    0.5900
     10 O10        -5.6638    3.0717   50.0007 O.2     1  ZINC000753658424   -0.5200
     11 N11        -4.7312    1.7548   51.5280 N.am    1  ZINC000753658424   -0.7300
     12 C12        -5.9660    1.7211   52.3157 C.3     1  ZINC000753658424    0.0900
     13 C13        -6.6776    0.3853   52.0915 C.3     1  ZINC000753658424    0.1900
     14 H14        -6.0056   -0.4326   52.3514 H       1  ZINC000753658424    0.1300
     15 O15        -7.0567    0.2722   50.7183 O.3     1  ZINC000753658424   -0.5500
     16 C16        -7.9079    0.3196   52.9593 C.2     1  ZINC000753658424   -0.0600
     17 C17        -9.0244   -0.3802   52.6893 C.2     1  ZINC000753658424   -0.1800
     18 C18        -9.9166   -0.1586   53.7635 C.2     1  ZINC000753658424   -0.2100
     19 C19        -9.2918    0.6634   54.6257 C.2     1  ZINC000753658424    0.0000
     20 C20        -9.8599    1.1756   55.9241 C.3     1  ZINC000753658424   -0.0800
     21 O21        -8.0733    0.9451   54.1363 O.3     1  ZINC000753658424   -0.1700
     22 C22        -2.2564    3.0288   49.9974 C.2     1  ZINC000753658424   -0.0100
     23 C23        -1.9739    3.6881   51.3227 C.3     1  ZINC000753658424   -0.0500
     24 C24        -0.6831    3.1158   51.9122 C.3     1  ZINC000753658424   -0.1500
     25 C25        -1.8168    5.1963   51.1189 C.3     1  ZINC000753658424   -0.1500
     26 H26         2.1284    2.7292   48.9395 H       1  ZINC000753658424    0.0800
     27 H27         1.0990    1.7893   50.0464 H       1  ZINC000753658424    0.1000
     28 H28         1.0407    1.4762   48.2952 H       1  ZINC000753658424    0.0900
     29 H29        -1.1080    0.7635   46.6321 H       1  ZINC000753658424    0.0900
     30 H30        -2.2094    1.8961   45.8120 H       1  ZINC000753658424    0.0800
     31 H31        -0.6014    2.4451   46.3425 H       1  ZINC000753658424    0.0900
     32 H32        -3.9755    1.5555   47.7991 H       1  ZINC000753658424    0.4200
     33 H33        -3.9490    1.2679   51.8313 H       1  ZINC000753658424    0.4000
     34 H34        -5.7255    1.8316   53.3731 H       1  ZINC000753658424    0.0900
     35 H35        -6.6181    2.5369   52.0042 H       1  ZINC000753658424    0.0800
     36 H36        -7.5407    1.0378   50.3796 H       1  ZINC000753658424    0.3900
     37 H37        -9.2050   -0.9933   51.8187 H       1  ZINC000753658424    0.1500
     38 H38       -10.9093   -0.5700   53.8710 H       1  ZINC000753658424    0.1500
     39 H39        -9.6058    0.4859   56.7291 H       1  ZINC000753658424    0.0800
     40 H40        -9.4410    2.1580   56.1417 H       1  ZINC000753658424    0.0800
     41 H41       -10.9440    1.2531   55.8409 H       1  ZINC000753658424    0.0900
     42 H42        -2.8011    3.4980   52.0066 H       1  ZINC000753658424    0.1100
     43 H43         0.1619    3.4090   51.2892 H       1  ZINC000753658424    0.0500
     44 H44        -0.5420    3.5024   52.9214 H       1  ZINC000753658424    0.0600
     45 H45        -0.7499    2.0283   51.9457 H       1  ZINC000753658424    0.0600
     46 H46        -2.7615    5.6167   50.7742 H       1  ZINC000753658424    0.0500
     47 H47        -1.5344    5.6629   52.0626 H       1  ZINC000753658424    0.0600
     48 H48        -1.0427    5.3837   50.3749 H       1  ZINC000753658424    0.0600
@<TRIPOS>BOND
     1     1     2    1
     2     1    26    1
     3     1    27    1
     4     1    28    1
     5     2     3    2
     6     2     4    1
     7     4    22    1
     8     4     5    2
     9     5     6    1
    10     5     7    1
    11     6    29    1
    12     6    30    1
    13     6    31    1
    14     7     8    1
    15     7    32    1
    16     8     9    1
    17     8    22    2
    18     9    10    2
    19     9    11   am
    20    11    12    1
    21    11    33    1
    22    12    13    1
    23    12    34    1
    24    12    35    1
    25    13    14    1
    26    13    15    1
    27    13    16    1
    28    15    36    1
    29    16    21    1
    30    16    17    2
    31    17    18    1
    32    17    37    1
    33    18    19    2
    34    18    38    1
    35    19    20    1
    36    19    21    1
    37    20    39    1
    38    20    40    1
    39    20    41    1
    40    22    23    1
    41    23    24    1
    42    23    25    1
    43    23    42    1
    44    24    43    1
    45    24    44    1
    46    24    45    1
    47    25    46    1
    48    25    47    1
    49    25    48    1
@<TRIPOS>SUBSTRUCTURE
     1 ZINC000753658424        1 TEMP              0 ****  ****    0 ROOT


##########                                Name:    ZINC000863246516
##########                DOCK_Rotatable_Bonds:                   5
##########                         Heavy_Atoms:                  25
##########                    Molecular_Weight:             356.489
##########                DOCK_Rotatable_Bonds:                   5
##########                       Formal_Charge:         -0.00999938
##########                     HBond_Acceptors:                   5
##########                        HBond_Donors:                   0
##########                         Heavy_Atoms:                  25
##########                          Grid_Score:          -29.683592
##########                     Grid_vdw_energy:          -29.328215
##########                      Grid_es_energy:           -0.355376
##########           Internal_energy_repulsive:           11.347956

@<TRIPOS>MOLECULE
ZINC000863246516
 49 52 1 0 0
SMALL
USER_CHARGES


@<TRIPOS>ATOM
      1 C1        -14.1766   -2.0425   55.1307 C.3     1  ZINC000863246516   -0.0600
      2 C2        -12.8240   -1.4132   55.3444 C.2     1  ZINC000863246516   -0.2000
      3 C3        -12.3041   -0.3833   54.6913 C.2     1  ZINC000863246516    0.0900
      4 C4        -13.0586    0.3176   53.5911 C.3     1  ZINC000863246516   -0.1000
      5 N5        -11.0538    0.0108   55.0645 N.am    1  ZINC000863246516   -0.5300
      6 C6        -10.3824    1.1375   54.4117 C.3     1  ZINC000863246516    0.1200
      7 C7         -9.5822    0.6282   53.2112 C.3     1  ZINC000863246516   -0.1500
      8 C8         -8.9089    1.7900   52.5270 C.2     1  ZINC000863246516    0.5400
      9 O9         -9.2900    2.9219   52.7382 O.2     1  ZINC000863246516   -0.5300
     10 N10        -7.8834    1.5712   51.6803 N.am    1  ZINC000863246516   -0.6100
     11 C11        -7.3294    0.2556   51.3406 C.3     1  ZINC000863246516    0.1100
     12 C12        -6.5263    0.4357   50.0384 C.3     1  ZINC000863246516   -0.1300
     13 H13        -7.0238    0.0926   49.1314 H       1  ZINC000863246516    0.1000
     14 C14        -5.0425    0.0607   50.1882 C.3     1  ZINC000863246516   -0.1200
     15 C15        -4.8412    1.4223   50.8726 C.3     1  ZINC000863246516   -0.0600
     16 H16        -4.9920    1.3943   51.9517 H       1  ZINC000863246516    0.1000
     17 C17        -3.5597    2.1110   50.4791 C.ar    1  ZINC000863246516   -0.0700
     18 C18        -2.7807    2.7242   51.4425 C.ar    1  ZINC000863246516   -0.1200
     19 C19        -1.6053    3.3560   51.0815 C.ar    1  ZINC000863246516   -0.1200
     20 C20        -1.2088    3.3742   49.7574 C.ar    1  ZINC000863246516   -0.1200
     21 C21        -1.9874    2.7602   48.7942 C.ar    1  ZINC000863246516   -0.1200
     22 C22        -3.1606    2.1247   49.1557 C.ar    1  ZINC000863246516   -0.1200
     23 C23        -6.0859    1.9202   50.0838 C.3     1  ZINC000863246516   -0.1100
     24 H24        -5.8811    2.4000   49.1268 H       1  ZINC000863246516    0.1200
     25 C25        -7.1506    2.6102   50.9495 C.3     1  ZINC000863246516    0.1200
     26 C26       -10.4632   -0.6760   56.0553 C.2     1  ZINC000863246516    0.4800
     27 O27        -9.3573   -0.4795   56.5270 O.2     1  ZINC000863246516   -0.4700
     28 S28       -11.5924   -1.8876   56.5272 S.3     1  ZINC000863246516    0.0100
     29 H29       -14.3080   -2.8678   55.8305 H       1  ZINC000863246516    0.0700
     30 H30       -14.9544   -1.2974   55.2976 H       1  ZINC000863246516    0.0800
     31 H31       -14.2457   -2.4175   54.1096 H       1  ZINC000863246516    0.0800
     32 H32       -14.0308   -0.1570   53.4577 H       1  ZINC000863246516    0.0900
     33 H33       -13.1992    1.3652   53.8571 H       1  ZINC000863246516    0.0800
     34 H34       -12.4917    0.2515   52.6625 H       1  ZINC000863246516    0.0800
     35 H35       -11.1274    1.8574   54.0728 H       1  ZINC000863246516    0.1000
     36 H36        -9.7082    1.6185   55.1202 H       1  ZINC000863246516    0.1000
     37 H37        -8.8269   -0.0800   53.5520 H       1  ZINC000863246516    0.1000
     38 H38       -10.2543    0.1334   52.5101 H       1  ZINC000863246516    0.1000
     39 H39        -6.6727   -0.0901   52.1390 H       1  ZINC000863246516    0.0700
     40 H40        -8.1367   -0.4601   51.1849 H       1  ZINC000863246516    0.0800
     41 H41        -4.8722   -0.7889   50.8494 H       1  ZINC000863246516    0.0800
     42 H42        -4.5179   -0.0309   49.2372 H       1  ZINC000863246516    0.0900
     43 H43        -3.0905    2.7100   52.4769 H       1  ZINC000863246516    0.1200
     44 H44        -0.9970    3.8356   51.8341 H       1  ZINC000863246516    0.1200
     45 H45        -0.2908    3.8684   49.4754 H       1  ZINC000863246516    0.1200
     46 H46        -1.6778    2.7747   47.7597 H       1  ZINC000863246516    0.1200
     47 H47        -3.7690    1.6451   48.4032 H       1  ZINC000863246516    0.1200
     48 H48        -7.8278    3.1820   50.3149 H       1  ZINC000863246516    0.0700
     49 H49        -6.6685    3.2745   51.6668 H       1  ZINC000863246516    0.0700
@<TRIPOS>BOND
     1     1     2    1
     2     1    29    1
     3     1    30    1
     4     1    31    1
     5     2    28    1
     6     2     3    2
     7     3     4    1
     8     3     5    1
     9     4    32    1
    10     4    33    1
    11     4    34    1
    12     5     6    1
    13     5    26   am
    14     6     7    1
    15     6    35    1
    16     6    36    1
    17     7     8    1
    18     7    37    1
    19     7    38    1
    20     8     9    2
    21     8    10   am
    22    10    25    1
    23    10    11    1
    24    11    12    1
    25    11    39    1
    26    11    40    1
    27    12    13    1
    28    12    23    1
    29    12    14    1
    30    14    15    1
    31    14    41    1
    32    14    42    1
    33    15    16    1
    34    15    17    1
    35    15    23    1
    36    17    22   ar
    37    17    18   ar
    38    18    19   ar
    39    18    43    1
    40    19    20   ar
    41    19    44    1
    42    20    21   ar
    43    20    45    1
    44    21    22   ar
    45    21    46    1
    46    22    47    1
    47    23    24    1
    48    23    25    1
    49    25    48    1
    50    25    49    1
    51    26    27    2
    52    26    28    1
@<TRIPOS>SUBSTRUCTURE
     1 ZINC000863246516        1 TEMP              0 ****  ****    0 ROOT


##########                                Name:    ZINC000291036115
##########                DOCK_Rotatable_Bonds:                   5
##########                         Heavy_Atoms:                  22
##########                    Molecular_Weight:             366.193
##########                DOCK_Rotatable_Bonds:                   5
##########                       Formal_Charge:                0.01
##########                     HBond_Acceptors:                   7
##########                        HBond_Donors:                   0
##########                         Heavy_Atoms:                  22
##########                          Grid_Score:          -29.669575
##########                     Grid_vdw_energy:          -27.261267
##########                      Grid_es_energy:           -2.408308
##########           Internal_energy_repulsive:            5.430094

@<TRIPOS>MOLECULE
ZINC000291036115
 35 37 1 0 0
SMALL
USER_CHARGES


@<TRIPOS>ATOM
      1 C1         -7.5808    4.4059   55.1962 C.3     1  <0>        -0.1500
      2 C2         -7.8631    3.0021   55.7355 C.3     1  <0>        -0.0400
      3 H3         -8.8237    2.9972   56.2506 H       1  <0>         0.0900
      4 C4         -6.7576    2.5998   56.7138 C.3     1  <0>        -0.0200
      5 C5         -7.3758    2.0123   57.9562 C.2     1  <0>         0.1900
      6 N6         -7.3742    0.7486   58.3067 N.2     1  <0>        -0.4500
      7 C7         -8.0363    0.6965   59.4762 C.2     1  <0>         0.1500
      8 C8         -8.3063   -0.5403   60.2939 C.3     1  <0>         0.2300
      9 N9         -8.5188   -0.1636   61.6936 N.pl3   1  <0>        -0.3900
     10 C10        -7.5818   -0.0650   62.6525 C.2     1  <0>         0.2600
     11 N11        -8.1730    0.2968   63.7622 N.2     1  <0>        -0.5400
     12 C12        -9.4811    0.4382   63.5519 C.2     1  <0>         0.2000
     13 N13        -9.7409    0.1724   62.2987 N.2     1  <0>        -0.3100
     14 N14        -8.4001    1.9084   59.7719 N.2     1  <0>        -0.3600
     15 O15        -8.0253    2.6802   58.9143 O.3     1  <0>         0.0900
     16 C16        -7.9018    2.0227   54.5909 C.ar    1  <0>        -0.0900
     17 C17        -8.9953    1.1930   54.4287 C.ar    1  <0>        -0.0700
     18 C18        -9.0327    0.2944   53.3790 C.ar    1  <0>        -0.1400
     19 C19        -7.9744    0.2252   52.4896 C.ar    1  <0>         0.1300
     20 F20        -8.0101   -0.6524   51.4632 F       1  <0>        -0.1200
     21 C21        -6.8784    1.0572   52.6528 C.ar    1  <0>        -0.1300
     22 Br22       -5.4315    0.9651   51.4389 Br      1  <0>        -0.0200
     23 C23        -6.8460    1.9588   53.7005 C.ar    1  <0>        -0.0500
     24 H24        -7.5528    5.1143   56.0241 H       1  <0>         0.0600
     25 H25        -6.6203    4.4108   54.6811 H       1  <0>         0.0700
     26 H26        -8.3683    4.6925   54.4993 H       1  <0>         0.0700
     27 H27        -6.1097    1.8590   56.2452 H       1  <0>         0.1200
     28 H28        -6.1710    3.4788   56.9806 H       1  <0>         0.1100
     29 H29        -9.1967   -1.0405   59.9131 H       1  <0>         0.1300
     30 H30        -7.4530   -1.2150   60.2248 H       1  <0>         0.1200
     31 H31        -6.5254   -0.2524   62.5287 H       1  <0>         0.2200
     32 H32       -10.2083    0.7296   64.2953 H       1  <0>         0.2200
     33 H33        -9.8211    1.2466   55.1228 H       1  <0>         0.1400
     34 H34        -9.8873   -0.3538   53.2529 H       1  <0>         0.1500
     35 H35        -5.9920    2.6075   53.8283 H       1  <0>         0.1400
@<TRIPOS>BOND
     1     1     2    1
     2     1    24    1
     3     1    25    1
     4     1    26    1
     5     2     3    1
     6     2     4    1
     7     2    16    1
     8     4     5    1
     9     4    27    1
    10     4    28    1
    11     5    15    1
    12     5     6    2
    13     6     7    1
    14     7     8    1
    15     7    14    2
    16     8     9    1
    17     8    29    1
    18     8    30    1
    19     9    13    1
    20     9    10    1
    21    10    11    2
    22    10    31    1
    23    11    12    1
    24    12    13    2
    25    12    32    1
    26    14    15    1
    27    16    23   ar
    28    16    17   ar
    29    17    18   ar
    30    17    33    1
    31    18    19   ar
    32    18    34    1
    33    19    20    1
    34    19    21   ar
    35    21    22    1
    36    21    23   ar
    37    23    35    1
@<TRIPOS>SUBSTRUCTURE
     1 <0>         1 TEMP              0 ****  ****    0 ROOT


##########                                Name:    ZINC000676204775
##########                DOCK_Rotatable_Bonds:                   4
##########                         Heavy_Atoms:                  25
##########                    Molecular_Weight:             359.452
##########                DOCK_Rotatable_Bonds:                   4
##########                       Formal_Charge:          0.00999978
##########                     HBond_Acceptors:                   8
##########                        HBond_Donors:                   2
##########                         Heavy_Atoms:                  25
##########                          Grid_Score:          -29.652697
##########                     Grid_vdw_energy:          -30.057747
##########                      Grid_es_energy:            0.405050
##########           Internal_energy_repulsive:            6.896970

@<TRIPOS>MOLECULE
ZINC000676204775
 46 49 1 0 0
SMALL
USER_CHARGES


@<TRIPOS>ATOM
      1 C1          2.1622   -0.2626   50.0600 C.3     1  ZINC000676204775   -0.1600
      2 C2          2.3780    1.0788   49.3563 C.3     1  ZINC000676204775    0.1600
      3 C3          3.3221    0.8850   48.1680 C.3     1  ZINC000676204775   -0.1600
      4 N4          1.0916    1.5925   48.8794 N.pl3   1  ZINC000676204775   -0.3900
      5 N5          0.6300    1.5264   47.5607 N.2     1  ZINC000676204775   -0.2500
      6 C6         -0.5490    2.0726   47.4713 C.2     1  ZINC000676204775    0.0900
      7 C7         -0.9243    2.5428   48.8008 C.ar    1  ZINC000676204775   -0.2100
      8 C8         -2.0475    3.1955   49.3204 C.ar    1  ZINC000676204775    0.0800
      9 C9         -2.0927    3.5073   50.6486 C.ar    1  ZINC000676204775   -0.7200
     10 S10        -3.5067    4.3289   51.3045 S.o2    1  ZINC000676204775    2.6900
     11 O11        -3.4512    4.1595   52.7142 O.2     1  ZINC000676204775   -0.9300
     12 O12        -3.5583    5.6023   50.6760 O.2     1  ZINC000676204775   -0.9600
     13 N13        -4.8413    3.4970   50.7857 N.am    1  ZINC000676204775   -1.1100
     14 C14        -5.0101    2.0864   51.1433 C.3     1  ZINC000676204775    0.2400
     15 H15        -4.0363    1.6382   51.3411 H       1  ZINC000676204775    0.1000
     16 C16        -5.6994    1.3402   49.9943 C.3     1  ZINC000676204775   -0.1200
     17 C17        -6.0927   -0.0657   50.4533 C.3     1  ZINC000676204775   -0.1200
     18 C18        -7.2666    0.0204   51.4367 C.3     1  ZINC000676204775   -0.0400
     19 C19        -6.9160    1.0304   52.5014 C.2     1  ZINC000676204775   -0.2300
     20 C20        -7.4912    1.2080   53.7051 C.2     1  ZINC000676204775    0.0600
     21 N21        -6.8472    2.2251   54.3203 N.pl3   1  ZINC000676204775   -0.4800
     22 N22        -5.8408    2.6857   53.4577 N.2     1  ZINC000676204775   -0.2400
     23 C23        -5.8816    1.9730   52.3706 C.2     1  ZINC000676204775    0.0500
     24 C24        -1.0345    3.1827   51.4882 C.ar    1  ZINC000676204775    0.0100
     25 C25         0.0729    2.5454   51.0043 C.ar    1  ZINC000676204775   -0.1500
     26 C26         0.1451    2.2097   49.6548 C.ar    1  ZINC000676204775    0.1700
     27 H27         1.4896   -0.1246   50.9067 H       1  ZINC000676204775    0.0600
     28 H28         1.7239   -0.9738   49.3599 H       1  ZINC000676204775    0.0700
     29 H29         3.1193   -0.6448   50.4149 H       1  ZINC000676204775    0.0800
     30 H30         2.8163    1.7900   50.0564 H       1  ZINC000676204775    0.1000
     31 H31         2.8838    0.1738   47.4679 H       1  ZINC000676204775    0.0700
     32 H32         3.4758    1.8406   47.6666 H       1  ZINC000676204775    0.0600
     33 H33         4.2792    0.5028   48.5229 H       1  ZINC000676204775    0.0800
     34 H34        -1.1427    2.1618   46.5736 H       1  ZINC000676204775    0.2000
     35 H35        -2.8740    3.4515   48.6742 H       1  ZINC000676204775    0.1500
     36 H36        -5.5114    3.9438   50.2449 H       1  ZINC000676204775    0.4200
     37 H37        -6.5930    1.8861   49.6920 H       1  ZINC000676204775    0.0800
     38 H38        -5.0164    1.2674   49.1479 H       1  ZINC000676204775    0.0800
     39 H39        -6.3871   -0.6602   49.5884 H       1  ZINC000676204775    0.0700
     40 H40        -5.2420   -0.5380   50.9445 H       1  ZINC000676204775    0.0700
     41 H41        -8.1656    0.3392   50.9093 H       1  ZINC000676204775    0.0700
     42 H42        -7.4344   -0.9540   51.8953 H       1  ZINC000676204775    0.0700
     43 H43        -8.3176    0.6406   54.1068 H       1  ZINC000676204775    0.1800
     44 H44        -7.0459    2.5749   55.2029 H       1  ZINC000676204775    0.4400
     45 H45        -1.0878    3.4378   52.5364 H       1  ZINC000676204775    0.1500
     46 H46         0.8886    2.2988   51.6678 H       1  ZINC000676204775    0.1300
@<TRIPOS>BOND
     1     1     2    1
     2     1    27    1
     3     1    28    1
     4     1    29    1
     5     2     3    1
     6     2     4    1
     7     2    30    1
     8     3    31    1
     9     3    32    1
    10     3    33    1
    11     4    26    1
    12     4     5    1
    13     5     6    2
    14     6     7    1
    15     6    34    1
    16     7    26   ar
    17     7     8   ar
    18     8     9   ar
    19     8    35    1
    20     9    10    1
    21     9    24   ar
    22    10    11    2
    23    10    12    2
    24    10    13   am
    25    13    14    1
    26    13    36    1
    27    14    15    1
    28    14    23    1
    29    14    16    1
    30    16    17    1
    31    16    37    1
    32    16    38    1
    33    17    18    1
    34    17    39    1
    35    17    40    1
    36    18    19    1
    37    18    41    1
    38    18    42    1
    39    19    23    1
    40    19    20    2
    41    20    21    1
    42    20    43    1
    43    21    22    1
    44    21    44    1
    45    22    23    2
    46    24    25   ar
    47    24    45    1
    48    25    26   ar
    49    25    46    1
@<TRIPOS>SUBSTRUCTURE
     1 ZINC000676204775        1 TEMP              0 ****  ****    0 ROOT


##########                                Name:    ZINC000563265674
##########                DOCK_Rotatable_Bonds:                   7
##########                         Heavy_Atoms:                  25
##########                    Molecular_Weight:             386.859
##########                DOCK_Rotatable_Bonds:                   7
##########                       Formal_Charge:          0.00999963
##########                     HBond_Acceptors:                  10
##########                        HBond_Donors:                   2
##########                         Heavy_Atoms:                  25
##########                          Grid_Score:          -29.611771
##########                     Grid_vdw_energy:          -29.179232
##########                      Grid_es_energy:           -0.432539
##########           Internal_energy_repulsive:           10.867476

@<TRIPOS>MOLECULE
ZINC000563265674
 44 45 1 0 0
SMALL
USER_CHARGES


@<TRIPOS>ATOM
      1 C1         -8.4218   -0.7390   59.9296 C.3     1  ZINC000563265674   -0.0600
      2 C2         -8.0675    0.3837   58.9888 C.2     1  ZINC000563265674    0.1700
      3 N3         -7.0144    0.4477   58.2301 N.2     1  ZINC000563265674   -0.3800
      4 O4         -7.0196    1.4787   57.5910 O.3     1  ZINC000563265674    0.0900
      5 C5         -8.1095    2.1918   57.8904 C.2     1  ZINC000563265674    0.1900
      6 C6         -8.4911    3.5317   57.3159 C.3     1  ZINC000563265674    0.2100
      7 C7        -10.0035    3.7278   57.4402 C.3     1  ZINC000563265674   -0.1400
      8 C8         -7.7684    4.6404   58.0834 C.3     1  ZINC000563265674   -0.1800
      9 N9         -8.1053    3.5850   55.8995 N.3     1  ZINC000563265674   -0.6600
     10 C10        -8.7479    2.5055   55.1379 C.3     1  ZINC000563265674    0.0400
     11 C11        -8.0434    2.3346   53.8167 C.2     1  ZINC000563265674    0.5200
     12 O12        -8.3660    3.0140   52.8651 O.2     1  ZINC000563265674   -0.4900
     13 N13        -7.0550    1.4268   53.6925 N.am    1  ZINC000563265674   -0.6700
     14 C14        -6.4006    1.2681   52.4652 C.ar    1  ZINC000563265674    0.1400
     15 C15        -5.3103    2.0672   52.1499 C.ar    1  ZINC000563265674   -0.0300
     16 C16        -4.6661    1.9079   50.9381 C.ar    1  ZINC000563265674   -0.6400
     17 S17        -3.2818    2.9218   50.5377 S.o2    1  ZINC000563265674    2.5000
     18 C18        -3.9158    4.6178   50.6485 C.3     1  ZINC000563265674   -0.6500
     19 O19        -2.3491    2.6689   51.5795 O.2     1  ZINC000563265674   -0.9300
     20 O20        -2.9820    2.5888   49.1892 O.2     1  ZINC000563265674   -0.9300
     21 C21        -5.1060    0.9539   50.0393 C.ar    1  ZINC000563265674   -0.0300
     22 C22        -6.1923    0.1559   50.3495 C.ar    1  ZINC000563265674   -0.1100
     23 C23        -6.8376    0.3062   51.5621 C.ar    1  ZINC000563265674   -0.0200
     24 Cl24       -8.2006   -0.6960   51.9514 Cl      1  ZINC000563265674   -0.0500
     25 N25        -8.7858    1.5006   58.7761 N.2     1  ZINC000563265674   -0.4700
     26 H26        -9.0180   -1.4823   59.4001 H       1  ZINC000563265674    0.0900
     27 H27        -7.5085   -1.2036   60.3013 H       1  ZINC000563265674    0.0900
     28 H28        -8.9954   -0.3433   60.7679 H       1  ZINC000563265674    0.0900
     29 H29       -10.2898    3.6882   58.4911 H       1  ZINC000563265674    0.0800
     30 H30       -10.2796    4.6969   57.0246 H       1  ZINC000563265674    0.0800
     31 H31       -10.5184    2.9379   56.8934 H       1  ZINC000563265674    0.0700
     32 H32        -6.6910    4.5007   57.9949 H       1  ZINC000563265674    0.0700
     33 H33        -8.0445    5.6095   57.6679 H       1  ZINC000563265674    0.0800
     34 H34        -8.0546    4.6008   59.1344 H       1  ZINC000563265674    0.0800
     35 H35        -8.3197    4.4864   55.4999 H       1  ZINC000563265674    0.3600
     36 H36        -8.6883    1.5761   55.7043 H       1  ZINC000563265674    0.1200
     37 H37        -9.7936    2.7575   54.9622 H       1  ZINC000563265674    0.0800
     38 H38        -6.7970    0.8835   54.4535 H       1  ZINC000563265674    0.4200
     39 H39        -4.9660    2.8130   52.8511 H       1  ZINC000563265674    0.1700
     40 H40        -4.2783    4.8048   51.6593 H       1  ZINC000563265674    0.1300
     41 H41        -3.1165    5.3206   50.4133 H       1  ZINC000563265674    0.1400
     42 H42        -4.7336    4.7471   49.9396 H       1  ZINC000563265674    0.1400
     43 H43        -4.6005    0.8318   49.0929 H       1  ZINC000563265674    0.1500
     44 H44        -6.5337   -0.5882   49.6451 H       1  ZINC000563265674    0.1500
@<TRIPOS>BOND
     1     1     2    1
     2     1    26    1
     3     1    27    1
     4     1    28    1
     5     2    25    1
     6     2     3    2
     7     3     4    1
     8     4     5    1
     9     5     6    1
    10     5    25    2
    11     6     7    1
    12     6     8    1
    13     6     9    1
    14     7    29    1
    15     7    30    1
    16     7    31    1
    17     8    32    1
    18     8    33    1
    19     8    34    1
    20     9    10    1
    21     9    35    1
    22    10    11    1
    23    10    36    1
    24    10    37    1
    25    11    12    2
    26    11    13   am
    27    13    14    1
    28    13    38    1
    29    14    23   ar
    30    14    15   ar
    31    15    16   ar
    32    15    39    1
    33    16    17    1
    34    16    21   ar
    35    17    18    1
    36    17    19    2
    37    17    20    2
    38    18    40    1
    39    18    41    1
    40    18    42    1
    41    21    22   ar
    42    21    43    1
    43    22    23   ar
    44    22    44    1
    45    23    24    1
@<TRIPOS>SUBSTRUCTURE
     1 ZINC000563265674        1 TEMP              0 ****  ****    0 ROOT


##########                                Name:    ZINC000942890482
##########                DOCK_Rotatable_Bonds:                   8
##########                         Heavy_Atoms:                  25
##########                    Molecular_Weight:             346.445
##########                DOCK_Rotatable_Bonds:                   8
##########                       Formal_Charge:          -0.0100004
##########                     HBond_Acceptors:                   5
##########                        HBond_Donors:                   0
##########                         Heavy_Atoms:                  25
##########                          Grid_Score:          -29.569134
##########                     Grid_vdw_energy:          -29.434954
##########                      Grid_es_energy:           -0.134180
##########           Internal_energy_repulsive:           25.902424

@<TRIPOS>MOLECULE
ZINC000942890482
 52 54 1 0 0
SMALL
USER_CHARGES


@<TRIPOS>ATOM
      1 C1         -5.4330    0.2334   50.3256 C.3     1  ZINC000942890482   -0.1700
      2 C2         -5.1243    1.0404   51.5884 C.3     1  ZINC000942890482    0.1000
      3 N3         -5.7377    2.3666   51.4824 N.am    1  ZINC000942890482   -0.6000
      4 C4         -5.0970    3.3550   50.8272 C.2     1  ZINC000942890482    0.5700
      5 O5         -5.6060    4.4555   50.7393 O.2     1  ZINC000942890482   -0.5100
      6 C6         -3.7764    3.1010   50.2160 C.ar    1  ZINC000942890482   -0.1400
      7 C7         -3.6844    2.7476   48.8682 C.ar    1  ZINC000942890482   -0.0600
      8 C8         -2.4494    2.5122   48.3027 C.ar    1  ZINC000942890482   -0.1600
      9 C9         -1.3001    2.6257   49.0695 C.ar    1  ZINC000942890482    0.1300
     10 F10        -0.0922    2.3938   48.5104 F       1  ZINC000942890482   -0.1300
     11 C11        -1.3857    2.9767   50.4084 C.ar    1  ZINC000942890482   -0.1600
     12 C12        -2.6149    3.2190   50.9826 C.ar    1  ZINC000942890482   -0.0100
     13 C13        -2.7064    3.6006   52.4376 C.3     1  ZINC000942890482   -0.1200
     14 C14        -7.0473    2.6185   52.0886 C.3     1  ZINC000942890482    0.1400
     15 H15        -7.5251    3.4867   51.6346 H       1  ZINC000942890482    0.1100
     16 C16        -6.9247    2.7915   53.6256 C.3     1  ZINC000942890482   -0.1500
     17 C17        -8.3172    2.3621   54.1339 C.3     1  ZINC000942890482    0.1100
     18 N18        -8.9160    1.5084   53.0975 N.am    1  ZINC000942890482   -0.6200
     19 C19       -10.1405    0.9478   53.1525 C.2     1  ZINC000942890482    0.5300
     20 O20       -10.5331    0.2576   52.2358 O.2     1  ZINC000942890482   -0.5400
     21 C21       -11.0218    1.1789   54.3529 C.3     1  ZINC000942890482   -0.1300
     22 C22       -11.4615   -0.1683   54.9296 C.3     1  ZINC000942890482   -0.0700
     23 C23       -10.2478   -0.8929   55.5150 C.3     1  ZINC000942890482   -0.1600
     24 C24       -10.2089   -1.0945   57.0312 C.3     1  ZINC000942890482   -0.1800
     25 C25       -10.4743   -2.2852   56.1076 C.3     1  ZINC000942890482   -0.1800
     26 C26        -7.9561    1.3681   51.9869 C.3     1  ZINC000942890482    0.0900
     27 H27        -6.5123    0.1270   50.2172 H       1  ZINC000942890482    0.0600
     28 H28        -5.0298    0.7518   49.4555 H       1  ZINC000942890482    0.0600
     29 H29        -4.9766   -0.7533   50.4044 H       1  ZINC000942890482    0.0700
     30 H30        -5.5275    0.5221   52.4583 H       1  ZINC000942890482    0.0900
     31 H31        -4.0450    1.1469   51.6968 H       1  ZINC000942890482    0.0900
     32 H32        -4.5792    2.6586   48.2700 H       1  ZINC000942890482    0.1400
     33 H33        -2.3771    2.2384   47.2604 H       1  ZINC000942890482    0.1400
     34 H34        -0.4871    3.0638   51.0013 H       1  ZINC000942890482    0.1400
     35 H35        -2.5802    4.6785   52.5392 H       1  ZINC000942890482    0.0900
     36 H36        -3.6816    3.3104   52.8287 H       1  ZINC000942890482    0.0700
     37 H37        -1.9235    3.0887   52.9974 H       1  ZINC000942890482    0.0700
     38 H38        -6.1496    2.1384   54.0266 H       1  ZINC000942890482    0.1000
     39 H39        -6.7246    3.8318   53.8819 H       1  ZINC000942890482    0.0900
     40 H40        -8.2160    1.8015   55.0631 H       1  ZINC000942890482    0.0700
     41 H41        -8.9404    3.2417   54.2952 H       1  ZINC000942890482    0.0700
     42 H42       -10.4672    1.7343   55.1091 H       1  ZINC000942890482    0.0900
     43 H43       -11.9005    1.7504   54.0538 H       1  ZINC000942890482    0.0900
     44 H44       -12.1999   -0.0040   55.7144 H       1  ZINC000942890482    0.0700
     45 H45       -11.9008   -0.7761   54.1387 H       1  ZINC000942890482    0.0700
     46 H46        -9.3009   -0.7101   55.0069 H       1  ZINC000942890482    0.1000
     47 H47        -9.2364   -1.0443   57.5208 H       1  ZINC000942890482    0.0900
     48 H48       -11.0480   -0.7110   57.6116 H       1  ZINC000942890482    0.0900
     49 H49       -11.4880   -2.6849   56.0805 H       1  ZINC000942890482    0.0900
     50 H50        -9.6763   -3.0183   55.9897 H       1  ZINC000942890482    0.0900
     51 H51        -8.4805    1.3556   51.0315 H       1  ZINC000942890482    0.0800
     52 H52        -7.3655    0.4600   52.1083 H       1  ZINC000942890482    0.0900
@<TRIPOS>BOND
     1     1     2    1
     2     1    27    1
     3     1    28    1
     4     1    29    1
     5     2     3    1
     6     2    30    1
     7     2    31    1
     8     3     4   am
     9     3    14    1
    10     4     5    2
    11     4     6    1
    12     6    12   ar
    13     6     7   ar
    14     7     8   ar
    15     7    32    1
    16     8     9   ar
    17     8    33    1
    18     9    10    1
    19     9    11   ar
    20    11    12   ar
    21    11    34    1
    22    12    13    1
    23    13    35    1
    24    13    36    1
    25    13    37    1
    26    14    15    1
    27    14    26    1
    28    14    16    1
    29    16    17    1
    30    16    38    1
    31    16    39    1
    32    17    18    1
    33    17    40    1
    34    17    41    1
    35    18    19   am
    36    18    26    1
    37    19    20    2
    38    19    21    1
    39    21    22    1
    40    21    42    1
    41    21    43    1
    42    22    23    1
    43    22    44    1
    44    22    45    1
    45    23    25    1
    46    23    24    1
    47    23    46    1
    48    24    25    1
    49    24    47    1
    50    24    48    1
    51    25    49    1
    52    25    50    1
    53    26    51    1
    54    26    52    1
@<TRIPOS>SUBSTRUCTURE
     1 ZINC000942890482        1 TEMP              0 ****  ****    0 ROOT


##########                                Name:    ZINC000609484313
##########                DOCK_Rotatable_Bonds:                  10
##########                         Heavy_Atoms:                  26
##########                    Molecular_Weight:             361.487
##########                DOCK_Rotatable_Bonds:                  10
##########                       Formal_Charge:          -0.0200004
##########                     HBond_Acceptors:                   7
##########                        HBond_Donors:                   1
##########                         Heavy_Atoms:                  26
##########                          Grid_Score:          -29.566612
##########                     Grid_vdw_energy:          -28.731153
##########                      Grid_es_energy:           -0.835460
##########           Internal_energy_repulsive:           27.301895

@<TRIPOS>MOLECULE
ZINC000609484313
 57 58 1 0 0
SMALL
USER_CHARGES


@<TRIPOS>ATOM
      1 C1          3.6311    3.6133   53.5635 C.3     1  ZINC000609484313   -0.1500
      2 C2          2.9456    2.7031   52.5425 C.3     1  ZINC000609484313   -0.1300
      3 C3          1.6425    3.3534   52.0735 C.3     1  ZINC000609484313   -0.1100
      4 C4          0.9103    2.4021   51.1248 C.3     1  ZINC000609484313   -0.1100
      5 C5          0.1270    3.2147   50.0918 C.3     1  ZINC000609484313    0.0800
      6 H6          0.1258    4.2655   50.3813 H       1  ZINC000609484313    0.1200
      7 C7          0.7754    3.0669   48.7396 C.2     1  ZINC000609484313    0.4900
      8 O8          1.2023    4.0439   48.1617 O.2     1  ZINC000609484313   -0.5000
      9 N9          0.8808    1.8488   48.1724 N.am    1  ZINC000609484313   -0.6300
     10 C10         1.4826    1.7117   46.9213 C.2     1  ZINC000609484313    0.2400
     11 N11         1.6181    2.6389   46.0099 N.2     1  ZINC000609484313   -0.3900
     12 O12         2.1833    2.2156   45.0283 O.3     1  ZINC000609484313    0.1000
     13 C13         2.5058    0.9208   45.1605 C.2     1  ZINC000609484313   -0.0200
     14 C14         3.2149    0.0613   44.1458 C.3     1  ZINC000609484313   -0.0800
     15 C15         2.0763    0.5384   46.3847 C.2     1  ZINC000609484313   -0.2300
     16 N16        -1.2558    2.7227   50.0282 N.3     1  ZINC000609484313   -0.5000
     17 C17        -1.9136    3.1592   48.7888 C.3     1  ZINC000609484313    0.0400
     18 C18        -3.3211    2.5619   48.7237 C.3     1  ZINC000609484313    0.0500
     19 N19        -4.0873    2.9903   49.9023 N.3     1  ZINC000609484313   -0.5100
     20 C20        -5.4700    2.4984   49.8387 C.3     1  ZINC000609484313    0.1800
     21 H21        -5.8697    2.6659   48.8385 H       1  ZINC000609484313    0.1200
     22 C22        -5.4927    1.0579   50.1413 C.1     1  ZINC000609484313    0.1700
     23 N23        -5.5102   -0.0536   50.3749 N.1     1  ZINC000609484313   -0.4200
     24 C24        -6.3256    3.2480   50.8619 C.3     1  ZINC000609484313   -0.0800
     25 C25        -6.3073    4.7444   50.5435 C.3     1  ZINC000609484313   -0.1400
     26 C26        -7.7644    2.7310   50.8002 C.3     1  ZINC000609484313   -0.1500
     27 C27        -3.4294    2.5537   51.1417 C.3     1  ZINC000609484313    0.0500
     28 C28        -2.0219    3.1512   51.2068 C.3     1  ZINC000609484313    0.0400
     29 H29         3.8511    4.5759   53.1020 H       1  ZINC000609484313    0.0500
     30 H30         2.9712    3.7624   54.4181 H       1  ZINC000609484313    0.0500
     31 H31         4.5595    3.1500   53.8976 H       1  ZINC000609484313    0.0500
     32 H32         3.6054    2.5540   51.6878 H       1  ZINC000609484313    0.0600
     33 H33         2.7255    1.7404   53.0039 H       1  ZINC000609484313    0.0600
     34 H34         1.0104    3.5640   52.9361 H       1  ZINC000609484313    0.0800
     35 H35         1.8678    4.2839   51.5523 H       1  ZINC000609484313    0.0600
     36 H36         1.6356    1.7685   50.6144 H       1  ZINC000609484313    0.0700
     37 H37         0.2215    1.7791   51.6952 H       1  ZINC000609484313    0.0800
     38 H38         0.5384    1.0675   48.6341 H       1  ZINC000609484313    0.4200
     39 H39         3.4376    0.6548   43.2592 H       1  ZINC000609484313    0.0800
     40 H40         4.1440   -0.3148   44.5742 H       1  ZINC000609484313    0.0900
     41 H41         2.5759   -0.7778   43.8704 H       1  ZINC000609484313    0.0900
     42 H42         2.1591   -0.4352   46.8445 H       1  ZINC000609484313    0.1900
     43 H43        -1.9793    4.2472   48.7757 H       1  ZINC000609484313    0.0800
     44 H44        -1.3342    2.8193   47.9304 H       1  ZINC000609484313    0.0800
     45 H45        -3.8216    2.9077   47.8192 H       1  ZINC000609484313    0.0900
     46 H46        -3.2541    1.4740   48.7094 H       1  ZINC000609484313    0.0400
     47 H47        -5.9232    3.0843   51.8616 H       1  ZINC000609484313    0.0800
     48 H48        -6.7097    4.9081   49.5437 H       1  ZINC000609484313    0.0600
     49 H49        -6.9169    5.2785   51.2724 H       1  ZINC000609484313    0.0500
     50 H50        -5.2824    5.1127   50.5874 H       1  ZINC000609484313    0.0700
     51 H51        -8.3932    3.3273   51.4612 H       1  ZINC000609484313    0.0700
     52 H52        -8.1349    2.8089   49.7782 H       1  ZINC000609484313    0.0600
     53 H53        -7.7897    1.6885   51.1174 H       1  ZINC000609484313    0.0500
     54 H54        -4.0089    2.8937   52.0002 H       1  ZINC000609484313    0.0900
     55 H55        -3.3638    1.4658   51.1548 H       1  ZINC000609484313    0.0400
     56 H56        -1.5215    2.8053   52.1113 H       1  ZINC000609484313    0.0800
     57 H57        -2.0889    4.2390   51.2212 H       1  ZINC000609484313    0.0800
@<TRIPOS>BOND
     1     1     2    1
     2     1    29    1
     3     1    30    1
     4     1    31    1
     5     2     3    1
     6     2    32    1
     7     2    33    1
     8     3     4    1
     9     3    34    1
    10     3    35    1
    11     4     5    1
    12     4    36    1
    13     4    37    1
    14     5     6    1
    15     5     7    1
    16     5    16    1
    17     7     8    2
    18     7     9   am
    19     9    10    1
    20     9    38    1
    21    10    15    1
    22    10    11    2
    23    11    12    1
    24    12    13    1
    25    13    14    1
    26    13    15    2
    27    14    39    1
    28    14    40    1
    29    14    41    1
    30    15    42    1
    31    16    28    1
    32    16    17    1
    33    17    18    1
    34    17    43    1
    35    17    44    1
    36    18    19    1
    37    18    45    1
    38    18    46    1
    39    19    20    1
    40    19    27    1
    41    20    21    1
    42    20    22    1
    43    20    24    1
    44    22    23    3
    45    24    25    1
    46    24    26    1
    47    24    47    1
    48    25    48    1
    49    25    49    1
    50    25    50    1
    51    26    51    1
    52    26    52    1
    53    26    53    1
    54    27    28    1
    55    27    54    1
    56    27    55    1
    57    28    56    1
    58    28    57    1
@<TRIPOS>SUBSTRUCTURE
     1 ZINC000609484313        1 TEMP              0 ****  ****    0 ROOT


##########                                Name:    ZINC000626935317
##########                DOCK_Rotatable_Bonds:                   6
##########                         Heavy_Atoms:                  25
##########                    Molecular_Weight:             366.441
##########                DOCK_Rotatable_Bonds:                   6
##########                       Formal_Charge:          -0.0200006
##########                     HBond_Acceptors:                   9
##########                        HBond_Donors:                   2
##########                         Heavy_Atoms:                  25
##########                          Grid_Score:          -29.564674
##########                     Grid_vdw_energy:          -27.665396
##########                      Grid_es_energy:           -1.899278
##########           Internal_energy_repulsive:           12.285872

@<TRIPOS>MOLECULE
ZINC000626935317
 47 49 1 0 0
SMALL
USER_CHARGES


@<TRIPOS>ATOM
      1 C1         -4.1753    3.7664   49.6267 C.3     1  ZINC000626935317    0.0900
      2 N2         -4.7956    2.4981   50.0181 N.am    1  ZINC000626935317   -0.6200
      3 C3         -4.4902    1.3058   49.4776 C.2     1  ZINC000626935317    0.5200
      4 O4         -3.6729    1.1304   48.5989 O.2     1  ZINC000626935317   -0.5200
      5 C5         -5.3139    0.2147   50.1253 C.3     1  ZINC000626935317   -0.1500
      6 C6         -5.8563    0.8660   51.4185 C.3     1  ZINC000626935317   -0.1200
      7 H7         -5.1998    0.6604   52.2639 H       1  ZINC000626935317    0.1200
      8 C8         -7.2619    0.4049   51.7061 C.2     1  ZINC000626935317    0.5300
      9 O9         -7.6629   -0.6426   51.2447 O.2     1  ZINC000626935317   -0.5200
     10 N10        -8.0735    1.1566   52.4760 N.am    1  ZINC000626935317   -0.7100
     11 C11        -9.4405    0.7092   52.7542 C.3     1  ZINC000626935317    0.1200
     12 C12        -9.5161   -0.4522   53.7592 C.3     1  ZINC000626935317   -0.1600
     13 C13        -9.5828    0.6134   54.8660 C.3     1  ZINC000626935317    0.1200
     14 N14        -8.2680    1.0255   55.3638 N.am    1  ZINC000626935317   -1.1100
     15 S15        -8.1000    1.5442   56.9275 S.o2    1  ZINC000626935317    2.6100
     16 C16        -9.1925    2.9875   57.0453 C.3     1  ZINC000626935317   -0.6700
     17 O17        -8.6060    0.4707   57.7090 O.2     1  ZINC000626935317   -0.9500
     18 O18        -6.7385    1.9403   57.0209 O.2     1  ZINC000626935317   -0.9500
     19 C19       -10.1661    1.5637   53.8069 C.3     1  ZINC000626935317   -0.1600
     20 C20        -5.8258    2.3653   51.0549 C.3     1  ZINC000626935317    0.2000
     21 H21        -6.7925    2.6774   50.6596 H       1  ZINC000626935317    0.1100
     22 C22        -5.4680    3.1883   52.2654 C.ar    1  ZINC000626935317   -0.1600
     23 C23        -4.1830    3.1515   52.7845 C.ar    1  ZINC000626935317   -0.0500
     24 C24        -3.8991    3.9258   53.8993 C.ar    1  ZINC000626935317   -0.1700
     25 C25        -4.8990    4.7029   54.4519 C.ar    1  ZINC000626935317    0.1000
     26 N26        -6.1108    4.7133   53.9313 N.ar    1  ZINC000626935317   -0.4800
     27 C27        -6.4152    3.9941   52.8689 C.ar    1  ZINC000626935317    0.1200
     28 H28        -3.2903    3.9419   50.2383 H       1  ZINC000626935317    0.0600
     29 H29        -3.8879    3.7214   48.5763 H       1  ZINC000626935317    0.0800
     30 H30        -4.8863    4.5793   49.7744 H       1  ZINC000626935317    0.0700
     31 H31        -6.1357   -0.0808   49.4732 H       1  ZINC000626935317    0.1100
     32 H32        -4.6877   -0.6448   50.3647 H       1  ZINC000626935317    0.1200
     33 H33        -7.7524    1.9938   52.8461 H       1  ZINC000626935317    0.4000
     34 H34       -10.0241    0.5435   51.8487 H       1  ZINC000626935317    0.1100
     35 H35       -10.4249   -1.0475   53.6710 H       1  ZINC000626935317    0.1100
     36 H36        -8.6121   -1.0604   53.7925 H       1  ZINC000626935317    0.0800
     37 H37       -10.2807    0.3684   55.6665 H       1  ZINC000626935317    0.1100
     38 H38        -7.4958    0.9946   54.7774 H       1  ZINC000626935317    0.4100
     39 H39       -10.2166    2.6871   56.8241 H       1  ZINC000626935317    0.1300
     40 H40        -9.1442    3.3984   58.0538 H       1  ZINC000626935317    0.1300
     41 H41        -8.8730    3.7445   56.3290 H       1  ZINC000626935317    0.1300
     42 H42        -9.7868    2.5831   53.8787 H       1  ZINC000626935317    0.0900
     43 H43       -11.2525    1.5196   53.7318 H       1  ZINC000626935317    0.1100
     44 H44        -3.4214    2.5341   52.3316 H       1  ZINC000626935317    0.1400
     45 H45        -2.9088    3.9212   54.3304 H       1  ZINC000626935317    0.1400
     46 H46        -4.6861    5.3085   55.3204 H       1  ZINC000626935317    0.1600
     47 H47        -7.4186    4.0282   52.4708 H       1  ZINC000626935317    0.1500
@<TRIPOS>BOND
     1     1     2    1
     2     1    28    1
     3     1    29    1
     4     1    30    1
     5     2    20    1
     6     2     3   am
     7     3     4    2
     8     3     5    1
     9     5     6    1
    10     5    31    1
    11     5    32    1
    12     6     7    1
    13     6     8    1
    14     6    20    1
    15     8     9    2
    16     8    10   am
    17    10    11    1
    18    10    33    1
    19    11    19    1
    20    11    12    1
    21    11    34    1
    22    12    13    1
    23    12    35    1
    24    12    36    1
    25    13    14    1
    26    13    19    1
    27    13    37    1
    28    14    15   am
    29    14    38    1
    30    15    16    1
    31    15    17    2
    32    15    18    2
    33    16    39    1
    34    16    40    1
    35    16    41    1
    36    19    42    1
    37    19    43    1
    38    20    21    1
    39    20    22    1
    40    22    27   ar
    41    22    23   ar
    42    23    24   ar
    43    23    44    1
    44    24    25   ar
    45    24    45    1
    46    25    26   ar
    47    25    46    1
    48    26    27   ar
    49    27    47    1
@<TRIPOS>SUBSTRUCTURE
     1 ZINC000626935317        1 TEMP              0 ****  ****    0 ROOT


##########                                Name:    ZINC000281092425
##########                DOCK_Rotatable_Bonds:                   8
##########                         Heavy_Atoms:                  23
##########                    Molecular_Weight:             332.304
##########                DOCK_Rotatable_Bonds:                   8
##########                       Formal_Charge:         2.98023e-08
##########                     HBond_Acceptors:                   9
##########                        HBond_Donors:                   2
##########                         Heavy_Atoms:                  23
##########                          Grid_Score:          -29.559984
##########                     Grid_vdw_energy:          -27.959600
##########                      Grid_es_energy:           -1.600384
##########           Internal_energy_repulsive:           20.183983

@<TRIPOS>MOLECULE
ZINC000281092425
 41 42 1 0 0
SMALL
USER_CHARGES


@<TRIPOS>ATOM
      1 O1          0.9633    1.7771   46.3186 O.2     1  ZINC000281092425   -0.1800
      2 N2          0.9478    2.2334   47.4479 N.pl3   1  ZINC000281092425    0.0400
      3 O3          1.9907    2.5525   47.9901 O.2     1  ZINC000281092425   -0.1500
      4 C4         -0.3388    2.4055   48.1588 C.ar    1  ZINC000281092425   -0.1200
      5 C5         -1.5213    2.0432   47.5428 C.ar    1  ZINC000281092425    0.0200
      6 C6         -2.7244    2.2023   48.2030 C.ar    1  ZINC000281092425   -0.2200
      7 C7         -2.7477    2.7272   49.4891 C.ar    1  ZINC000281092425    0.3000
      8 N8         -3.9637    2.8879   50.1571 N.pl3   1  ZINC000281092425   -0.7200
      9 C9         -4.5685    1.7539   50.8604 C.3     1  ZINC000281092425    0.1200
     10 C10        -6.0595    2.0227   51.0740 C.3     1  ZINC000281092425   -0.0900
     11 H11        -6.2069    3.0729   51.3261 H       1  ZINC000281092425    0.0900
     12 C12        -6.8260    1.6937   49.7914 C.3     1  ZINC000281092425    0.0800
     13 O13        -7.0294    2.8906   49.0377 O.3     1  ZINC000281092425   -0.5700
     14 C14        -6.5771    1.1466   52.2165 C.3     1  ZINC000281092425   -0.1100
     15 H15        -5.9205    1.2152   53.0839 H       1  ZINC000281092425    0.0900
     16 C16        -8.0332    1.5332   52.5936 C.3     1  ZINC000281092425   -0.1600
     17 C17        -8.5613    0.1858   53.1473 C.3     1  ZINC000281092425    0.0500
     18 O18        -7.9492   -0.8223   52.3273 O.3     1  ZINC000281092425   -0.3900
     19 C19        -6.7306   -0.3196   51.7582 C.3     1  ZINC000281092425    0.0700
     20 C20        -1.5604    3.0915   50.1097 C.ar    1  ZINC000281092425   -0.2800
     21 C21        -0.3554    2.9256   49.4457 C.ar    1  ZINC000281092425    0.2300
     22 O22         0.8086    3.2807   50.0506 O.3     1  ZINC000281092425   -0.2900
     23 C23         0.8984    4.6159   50.5516 C.3     1  ZINC000281092425    0.4100
     24 F24         0.7140    4.6070   51.9385 F       1  ZINC000281092425   -0.1900
     25 F25         2.1594    5.1427   50.2522 F       1  ZINC000281092425   -0.1900
     26 H26        -1.5051    1.6350   46.5430 H       1  ZINC000281092425    0.1600
     27 H27        -3.6474    1.9189   47.7191 H       1  ZINC000281092425    0.1500
     28 H28        -4.4078    3.7502   50.1554 H       1  ZINC000281092425    0.4100
     29 H29        -4.4441    0.8492   50.2654 H       1  ZINC000281092425    0.0800
     30 H30        -4.0808    1.6235   51.8263 H       1  ZINC000281092425    0.0800
     31 H31        -6.2516    0.9832   49.1970 H       1  ZINC000281092425    0.0500
     32 H32        -7.7914    1.2568   50.0469 H       1  ZINC000281092425    0.0500
     33 H33        -7.5020    2.7554   48.2049 H       1  ZINC000281092425    0.3800
     34 H34        -8.0479    2.3064   53.3618 H       1  ZINC000281092425    0.0800
     35 H35        -8.5972    1.8447   51.7145 H       1  ZINC000281092425    0.0800
     36 H36        -8.2613    0.0607   54.1877 H       1  ZINC000281092425    0.0600
     37 H37        -9.6465    0.1392   53.0574 H       1  ZINC000281092425    0.0900
     38 H38        -6.7860   -0.3605   50.6704 H       1  ZINC000281092425    0.0800
     39 H39        -5.8863   -0.9131   52.1092 H       1  ZINC000281092425    0.0700
     40 H40        -1.5755    3.4997   51.1095 H       1  ZINC000281092425    0.1500
     41 H41         0.1279    5.2311   50.0866 H       1  ZINC000281092425    0.1900
@<TRIPOS>BOND
     1     1     2    2
     2     2     3    2
     3     2     4    1
     4     4    21   ar
     5     4     5   ar
     6     5     6   ar
     7     5    26    1
     8     6     7   ar
     9     6    27    1
    10     7     8    1
    11     7    20   ar
    12     8     9    1
    13     8    28    1
    14     9    10    1
    15     9    29    1
    16     9    30    1
    17    10    11    1
    18    10    12    1
    19    10    14    1
    20    12    13    1
    21    12    31    1
    22    12    32    1
    23    13    33    1
    24    14    15    1
    25    14    19    1
    26    14    16    1
    27    16    17    1
    28    16    34    1
    29    16    35    1
    30    17    18    1
    31    17    36    1
    32    17    37    1
    33    18    19    1
    34    19    38    1
    35    19    39    1
    36    20    21   ar
    37    20    40    1
    38    21    22    1
    39    22    23    1
    40    23    24    1
    41    23    25    1
    42    23    41    1
@<TRIPOS>SUBSTRUCTURE
     1 ZINC000281092425        1 TEMP              0 ****  ****    0 ROOT


##########                                Name:    ZINC000859202493
##########                DOCK_Rotatable_Bonds:                  11
##########                         Heavy_Atoms:                  25
##########                    Molecular_Weight:             382.404
##########                DOCK_Rotatable_Bonds:                  11
##########                       Formal_Charge:          -0.0200009
##########                     HBond_Acceptors:                  10
##########                        HBond_Donors:                   3
##########                         Heavy_Atoms:                  25
##########                          Grid_Score:          -29.555782
##########                     Grid_vdw_energy:          -26.687569
##########                      Grid_es_energy:           -2.868213
##########           Internal_energy_repulsive:            9.385335

@<TRIPOS>MOLECULE
ZINC000859202493
 46 46 1 0 0
SMALL
USER_CHARGES


@<TRIPOS>ATOM
      1 C1         -7.6080   -0.4004   51.6086 C.3     1  ZINC000859202493   -0.1500
      2 C2         -8.1665    0.8553   52.2809 C.3     1  ZINC000859202493   -0.1200
      3 C3         -7.0862    1.9383   52.3161 C.3     1  ZINC000859202493   -0.1000
      4 H4         -6.1030    1.4695   52.3567 H       1  ZINC000859202493    0.0700
      5 C5         -7.2842    2.8162   53.5534 C.3     1  ZINC000859202493   -0.1600
      6 C6         -7.1880    2.8013   51.0568 C.3     1  ZINC000859202493   -0.1200
      7 C7         -5.8326    3.4520   50.7735 C.3     1  ZINC000859202493    0.1600
      8 H8         -5.1373    3.2078   51.5767 H       1  ZINC000859202493    0.1000
      9 C9         -6.0030    4.9703   50.6908 C.3     1  ZINC000859202493    0.0500
     10 O10        -4.7218    5.5862   50.5448 O.3     1  ZINC000859202493   -0.5700
     11 N11        -5.3060    2.9498   49.5020 N.am    1  ZINC000859202493   -1.1000
     12 S12        -4.0088    1.9204   49.4919 S.o2    1  ZINC000859202493    2.6900
     13 O13        -4.3447    0.8431   50.3556 O.2     1  ZINC000859202493   -0.9500
     14 O14        -3.6497    1.7409   48.1288 O.2     1  ZINC000859202493   -0.9500
     15 C15        -2.6645    2.7678   50.2531 C.ar    1  ZINC000859202493   -0.6600
     16 C16        -1.7985    3.5216   49.4829 C.ar    1  ZINC000859202493   -0.0300
     17 C17        -0.7418    4.1879   50.0765 C.ar    1  ZINC000859202493   -0.1100
     18 C18        -0.5490    4.1025   51.4412 C.ar    1  ZINC000859202493   -0.0600
     19 C19        -1.4175    3.3464   52.2178 C.ar    1  ZINC000859202493    0.1200
     20 N20        -1.2251    3.2581   53.6010 N.am    1  ZINC000859202493   -0.6500
     21 C21        -1.5905    4.2810   54.3988 C.2     1  ZINC000859202493    0.4800
     22 O22        -2.0863    5.2780   53.9179 O.2     1  ZINC000859202493   -0.4500
     23 C23        -1.3833    4.1859   55.8884 C.3     1  ZINC000859202493    0.4600
     24 F24        -0.0351    4.4109   56.1870 F       1  ZINC000859202493   -0.1500
     25 F25        -2.1699    5.1479   56.5311 F       1  ZINC000859202493   -0.1600
     26 F26        -1.7523    2.9109   56.3302 F       1  ZINC000859202493   -0.1600
     27 C27        -2.4804    2.6829   51.6195 C.ar    1  ZINC000859202493   -0.0300
     28 H28        -8.3775   -1.1719   51.5836 H       1  ZINC000859202493    0.0500
     29 H29        -7.3000   -0.1613   50.5908 H       1  ZINC000859202493    0.0500
     30 H30        -6.7485   -0.7628   52.1726 H       1  ZINC000859202493    0.0600
     31 H31        -9.0259    1.2177   51.7168 H       1  ZINC000859202493    0.0600
     32 H32        -8.4744    0.6162   53.2987 H       1  ZINC000859202493    0.0600
     33 H33        -6.5146    3.5877   53.5784 H       1  ZINC000859202493    0.0500
     34 H34        -8.2675    3.2849   53.5126 H       1  ZINC000859202493    0.0600
     35 H35        -7.2117    2.2014   54.4504 H       1  ZINC000859202493    0.0600
     36 H36        -7.4753    2.1770   50.2107 H       1  ZINC000859202493    0.0800
     37 H37        -7.9390    3.5769   51.2076 H       1  ZINC000859202493    0.0800
     38 H38        -6.6261    5.2197   49.8319 H       1  ZINC000859202493    0.0600
     39 H39        -6.4786    5.3326   51.6021 H       1  ZINC000859202493    0.0600
     40 H40        -4.0190    5.1568   51.0513 H       1  ZINC000859202493    0.3800
     41 H41        -5.7172    3.2201   48.6662 H       1  ZINC000859202493    0.4200
     42 H42        -1.9471    3.5901   48.4154 H       1  ZINC000859202493    0.1500
     43 H43        -0.0666    4.7754   49.4720 H       1  ZINC000859202493    0.1400
     44 H44         0.2766    4.6227   51.9041 H       1  ZINC000859202493    0.1400
     45 H45        -0.8287    2.4607   53.9856 H       1  ZINC000859202493    0.4200
     46 H46        -3.1575    2.0942   52.2206 H       1  ZINC000859202493    0.1500
@<TRIPOS>BOND
     1     1     2    1
     2     1    28    1
     3     1    29    1
     4     1    30    1
     5     2     3    1
     6     2    31    1
     7     2    32    1
     8     3     4    1
     9     3     5    1
    10     3     6    1
    11     5    33    1
    12     5    34    1
    13     5    35    1
    14     6     7    1
    15     6    36    1
    16     6    37    1
    17     7     8    1
    18     7     9    1
    19     7    11    1
    20     9    10    1
    21     9    38    1
    22     9    39    1
    23    10    40    1
    24    11    12   am
    25    11    41    1
    26    12    13    2
    27    12    14    2
    28    12    15    1
    29    15    27   ar
    30    15    16   ar
    31    16    17   ar
    32    16    42    1
    33    17    18   ar
    34    17    43    1
    35    18    19   ar
    36    18    44    1
    37    19    20    1
    38    19    27   ar
    39    20    21   am
    40    20    45    1
    41    21    22    2
    42    21    23    1
    43    23    24    1
    44    23    25    1
    45    23    26    1
    46    27    46    1
@<TRIPOS>SUBSTRUCTURE
     1 ZINC000859202493        1 TEMP              0 ****  ****    0 ROOT


##########                                Name:    ZINC000496437542
##########                DOCK_Rotatable_Bonds:                   7
##########                         Heavy_Atoms:                  24
##########                    Molecular_Weight:             338.447
##########                DOCK_Rotatable_Bonds:                   7
##########                       Formal_Charge:           0.0400002
##########                     HBond_Acceptors:                   6
##########                        HBond_Donors:                   1
##########                         Heavy_Atoms:                  24
##########                          Grid_Score:          -29.554384
##########                     Grid_vdw_energy:          -27.054405
##########                      Grid_es_energy:           -2.499979
##########           Internal_energy_repulsive:           31.263216

@<TRIPOS>MOLECULE
ZINC000496437542
 54 55 1 0 0
SMALL
USER_CHARGES


@<TRIPOS>ATOM
      1 C1         -0.3060    0.1100   62.3140 C.3     1  ZINC000496437542   -0.1800
      2 C2          0.9723    0.5952   61.6271 C.3     1  ZINC000496437542    0.1400
      3 C3          1.6326    1.6770   62.4841 C.3     1  ZINC000496437542   -0.1800
      4 C4          1.9370   -0.5800   61.4566 C.3     1  ZINC000496437542   -0.1400
      5 O5          0.6429    1.1441   60.3239 O.3     1  ZINC000496437542   -0.3600
      6 C6          1.6380    1.7444   59.6442 C.2     1  ZINC000496437542    0.6600
      7 O7          2.7952    1.5357   59.9507 O.2     1  ZINC000496437542   -0.5600
      8 N8          1.3507    2.5769   58.6239 N.am    1  ZINC000496437542   -0.6000
      9 C9          2.4213    3.2443   57.8666 C.3     1  ZINC000496437542    0.0800
     10 C10         2.1730    3.0123   56.3717 C.3     1  ZINC000496437542    0.0500
     11 O11         0.8339    3.3973   56.0517 O.3     1  ZINC000496437542   -0.3700
     12 C12        -0.1710    2.6321   56.7213 C.3     1  ZINC000496437542    0.0700
     13 H13        -0.0385    1.5752   56.4897 H       1  ZINC000496437542    0.0700
     14 C14        -1.5553    3.0878   56.2557 C.3     1  ZINC000496437542    0.1300
     15 N15        -1.5877    3.1331   54.7918 N.am    1  ZINC000496437542   -0.7200
     16 C16        -2.3496    4.0498   54.1626 C.2     1  ZINC000496437542    0.5600
     17 O17        -3.0091    4.8401   54.8102 O.2     1  ZINC000496437542   -0.5400
     18 C18        -2.3835    4.0942   52.6927 C.2     1  ZINC000496437542   -0.1900
     19 C19        -1.2726    4.2966   52.0178 C.2     1  ZINC000496437542   -0.0600
     20 C20        -1.2961    4.3447   50.5046 C.3     1  ZINC000496437542   -0.1000
     21 C21        -1.5364    2.9289   49.9757 C.3     1  ZINC000496437542   -0.1100
     22 C22        -3.0212    2.6197   49.9177 C.3     1  ZINC000496437542   -0.1200
     23 C23        -3.6843    2.5368   51.2805 C.3     1  ZINC000496437542   -0.1200
     24 C24        -3.6960    3.9007   51.9630 C.3     1  ZINC000496437542   -0.0800
     25 C25        -0.0426    2.8403   58.2304 C.3     1  ZINC000496437542    0.1000
     26 H26        -0.9933    0.9472   62.4356 H       1  ZINC000496437542    0.0900
     27 H27        -0.7763   -0.6607   61.7035 H       1  ZINC000496437542    0.0600
     28 H28        -0.0587   -0.3021   63.2923 H       1  ZINC000496437542    0.0700
     29 H29         1.8799    1.2649   63.4624 H       1  ZINC000496437542    0.0700
     30 H30         2.5433    2.0225   61.9948 H       1  ZINC000496437542    0.0600
     31 H31         0.9453    2.5142   62.6057 H       1  ZINC000496437542    0.0900
     32 H32         1.4666   -1.3507   60.8459 H       1  ZINC000496437542    0.0700
     33 H33         2.8476   -0.2343   60.9672 H       1  ZINC000496437542    0.0700
     34 H34         2.1843   -0.9921   62.4349 H       1  ZINC000496437542    0.0800
     35 H35         2.4096    4.3134   58.0790 H       1  ZINC000496437542    0.0800
     36 H36         3.3869    2.8242   58.1478 H       1  ZINC000496437542    0.1000
     37 H37         2.8731    3.6112   55.7891 H       1  ZINC000496437542    0.1100
     38 H38         2.3140    1.9570   56.1387 H       1  ZINC000496437542    0.0600
     39 H39        -2.3085    2.3860   56.6142 H       1  ZINC000496437542    0.0900
     40 H40        -1.7644    4.0803   56.6547 H       1  ZINC000496437542    0.0800
     41 H41        -1.0607    2.5036   54.2752 H       1  ZINC000496437542    0.4000
     42 H42        -0.3396    4.4294   52.5454 H       1  ZINC000496437542    0.1300
     43 H43        -2.1002    5.0012   50.1718 H       1  ZINC000496437542    0.0800
     44 H44        -0.3403    4.7162   50.1353 H       1  ZINC000496437542    0.0800
     45 H45        -1.1130    2.8434   48.9749 H       1  ZINC000496437542    0.0700
     46 H46        -1.0462    2.2120   50.6342 H       1  ZINC000496437542    0.0700
     47 H47        -3.5162    3.3980   49.3369 H       1  ZINC000496437542    0.0600
     48 H48        -3.1585    1.6673   49.4057 H       1  ZINC000496437542    0.0600
     49 H49        -4.7095    2.1867   51.1599 H       1  ZINC000496437542    0.0700
     50 H50        -3.1359    1.8305   51.9038 H       1  ZINC000496437542    0.0600
     51 H51        -4.5201    3.9466   52.6750 H       1  ZINC000496437542    0.0700
     52 H52        -3.8119    4.6839   51.2138 H       1  ZINC000496437542    0.0800
     53 H53        -0.7093    2.1547   58.7536 H       1  ZINC000496437542    0.1100
     54 H54        -0.3013    3.8687   58.4825 H       1  ZINC000496437542    0.0900
@<TRIPOS>BOND
     1     1     2    1
     2     1    26    1
     3     1    27    1
     4     1    28    1
     5     2     3    1
     6     2     4    1
     7     2     5    1
     8     3    29    1
     9     3    30    1
    10     3    31    1
    11     4    32    1
    12     4    33    1
    13     4    34    1
    14     5     6    1
    15     6     7    2
    16     6     8   am
    17     8    25    1
    18     8     9    1
    19     9    10    1
    20     9    35    1
    21     9    36    1
    22    10    11    1
    23    10    37    1
    24    10    38    1
    25    11    12    1
    26    12    13    1
    27    12    14    1
    28    12    25    1
    29    14    15    1
    30    14    39    1
    31    14    40    1
    32    15    16   am
    33    15    41    1
    34    16    17    2
    35    16    18    1
    36    18    24    1
    37    18    19    2
    38    19    20    1
    39    19    42    1
    40    20    21    1
    41    20    43    1
    42    20    44    1
    43    21    22    1
    44    21    45    1
    45    21    46    1
    46    22    23    1
    47    22    47    1
    48    22    48    1
    49    23    24    1
    50    23    49    1
    51    23    50    1
    52    24    51    1
    53    24    52    1
    54    25    53    1
    55    25    54    1
@<TRIPOS>SUBSTRUCTURE
     1 ZINC000496437542        1 TEMP              0 ****  ****    0 ROOT


##########                                Name:    ZINC000179743483
##########                DOCK_Rotatable_Bonds:                   5
##########                         Heavy_Atoms:                  23
##########                    Molecular_Weight:             393.347
##########                DOCK_Rotatable_Bonds:                   5
##########                       Formal_Charge:          -0.0199999
##########                     HBond_Acceptors:                   4
##########                        HBond_Donors:                   0
##########                         Heavy_Atoms:                  23
##########                          Grid_Score:          -29.552738
##########                     Grid_vdw_energy:          -28.636095
##########                      Grid_es_energy:           -0.916642
##########           Internal_energy_repulsive:           20.577364

@<TRIPOS>MOLECULE
ZINC000179743483
 44 46 1 0 0
SMALL
USER_CHARGES


@<TRIPOS>ATOM
      1 C1         -6.9873    2.2715   50.0744 C.3     1  ZINC000179743483   -0.1400
      2 C2         -5.8837    1.5094   50.8107 C.3     1  ZINC000179743483   -0.1000
      3 H3         -5.6100    2.0512   51.7162 H       1  ZINC000179743483    0.1000
      4 C4         -6.3893    0.1144   51.1843 C.3     1  ZINC000179743483   -0.0700
      5 C5         -7.4490    0.2327   52.2492 C.ar    1  ZINC000179743483   -0.0600
      6 C6         -8.6991   -0.3211   52.0446 C.ar    1  ZINC000179743483   -0.1100
      7 C7         -9.6712   -0.2132   53.0213 C.ar    1  ZINC000179743483   -0.0900
      8 C8         -9.3931    0.4488   54.2035 C.ar    1  ZINC000179743483   -0.0900
      9 Br9       -10.7225    0.5961   55.5403 Br      1  ZINC000179743483   -0.0500
     10 C10        -8.1422    1.0027   54.4078 C.ar    1  ZINC000179743483   -0.0900
     11 C11        -7.1691    0.8899   53.4327 C.ar    1  ZINC000179743483   -0.1100
     12 C12        -4.6773    1.3837   49.9166 C.2     1  ZINC000179743483    0.5200
     13 O13        -4.4434    0.3329   49.3579 O.2     1  ZINC000179743483   -0.5300
     14 N14        -3.8582    2.4389   49.7375 N.am    1  ZINC000179743483   -0.6100
     15 C15        -4.1284    3.7183   50.4074 C.3     1  ZINC000179743483    0.1000
     16 C16        -2.8763    4.1442   51.1805 C.3     1  ZINC000179743483   -0.1400
     17 C17        -1.6789    4.1741   50.2278 C.3     1  ZINC000179743483   -0.1100
     18 C18        -1.4423    2.7732   49.6591 C.3     1  ZINC000179743483   -0.0200
     19 H19        -1.2642    2.0741   50.4764 H       1  ZINC000179743483    0.0900
     20 C20        -0.2430    2.7966   48.7470 C.2     1  ZINC000179743483    0.0500
     21 N21         0.9072    3.2954   49.0520 N.2     1  ZINC000179743483   -0.4700
     22 C22         1.8516    3.2327   48.1349 C.2     1  ZINC000179743483    0.0400
     23 C23         1.4771    2.6485   46.9929 C.2     1  ZINC000179743483   -0.2600
     24 S24        -0.2073    2.1594   47.1607 S.3     1  ZINC000179743483    0.1300
     25 C25        -2.6748    2.3299   48.8736 C.3     1  ZINC000179743483    0.1200
     26 H26        -7.2071    1.7713   49.1312 H       1  ZINC000179743483    0.0700
     27 H27        -7.8858    2.2956   50.6909 H       1  ZINC000179743483    0.0700
     28 H28        -6.6551    3.2906   49.8763 H       1  ZINC000179743483    0.0600
     29 H29        -6.8124   -0.3669   50.3026 H       1  ZINC000179743483    0.0900
     30 H30        -5.5598   -0.4835   51.5619 H       1  ZINC000179743483    0.0800
     31 H31        -8.9162   -0.8376   51.1214 H       1  ZINC000179743483    0.1300
     32 H32       -10.6479   -0.6456   52.8611 H       1  ZINC000179743483    0.1300
     33 H33        -7.9246    1.5197   55.3306 H       1  ZINC000179743483    0.1300
     34 H34        -6.1923    1.3223   53.5922 H       1  ZINC000179743483    0.1300
     35 H35        -4.3735    4.4759   49.6630 H       1  ZINC000179743483    0.0700
     36 H36        -4.9623    3.5996   51.0992 H       1  ZINC000179743483    0.0900
     37 H37        -3.0298    5.1372   51.6030 H       1  ZINC000179743483    0.0800
     38 H38        -2.6847    3.4322   51.9833 H       1  ZINC000179743483    0.0700
     39 H39        -1.8815    4.8677   49.4117 H       1  ZINC000179743483    0.0800
     40 H40        -0.7915    4.5006   50.7700 H       1  ZINC000179743483    0.0700
     41 H41         2.8465    3.6220   48.2933 H       1  ZINC000179743483    0.1800
     42 H42         2.0984    2.4992   46.1221 H       1  ZINC000179743483    0.1800
     43 H43        -2.5502    1.2961   48.5510 H       1  ZINC000179743483    0.0900
     44 H44        -2.8044    2.9733   48.0034 H       1  ZINC000179743483    0.0800
@<TRIPOS>BOND
     1     1     2    1
     2     1    26    1
     3     1    27    1
     4     1    28    1
     5     2     3    1
     6     2     4    1
     7     2    12    1
     8     4     5    1
     9     4    29    1
    10     4    30    1
    11     5    11   ar
    12     5     6   ar
    13     6     7   ar
    14     6    31    1
    15     7     8   ar
    16     7    32    1
    17     8     9    1
    18     8    10   ar
    19    10    11   ar
    20    10    33    1
    21    11    34    1
    22    12    13    2
    23    12    14   am
    24    14    25    1
    25    14    15    1
    26    15    16    1
    27    15    35    1
    28    15    36    1
    29    16    17    1
    30    16    37    1
    31    16    38    1
    32    17    18    1
    33    17    39    1
    34    17    40    1
    35    18    19    1
    36    18    20    1
    37    18    25    1
    38    20    24    1
    39    20    21    2
    40    21    22    1
    41    22    23    2
    42    22    41    1
    43    23    24    1
    44    23    42    1
    45    25    43    1
    46    25    44    1
@<TRIPOS>SUBSTRUCTURE
     1 ZINC000179743483        1 TEMP              0 ****  ****    0 ROOT


##########                                Name:    ZINC000817655807
##########                DOCK_Rotatable_Bonds:                   3
##########                         Heavy_Atoms:                  24
##########                    Molecular_Weight:             352.774
##########                DOCK_Rotatable_Bonds:                   3
##########                       Formal_Charge:         3.35276e-07
##########                     HBond_Acceptors:                   8
##########                        HBond_Donors:                   0
##########                         Heavy_Atoms:                  24
##########                          Grid_Score:          -29.522051
##########                     Grid_vdw_energy:          -29.091900
##########                      Grid_es_energy:           -0.430151
##########           Internal_energy_repulsive:            2.259151

@<TRIPOS>MOLECULE
ZINC000817655807
 41 44 1 0 0
SMALL
USER_CHARGES


@<TRIPOS>ATOM
      1 C1         -7.7522    1.6152   56.3864 C.3     1  ZINC000817655807    0.1100
      2 N2         -7.9642    1.3122   54.9688 N.am    1  ZINC000817655807   -0.6400
      3 C3         -6.9327    1.3639   53.9172 C.3     1  ZINC000817655807    0.1000
      4 C4         -7.6975    0.9587   52.6539 C.3     1  ZINC000817655807    0.0500
      5 C5         -7.5258    1.8822   51.4477 C.3     1  ZINC000817655807    0.1200
      6 N6         -6.4533    0.9556   51.0289 N.am    1  ZINC000817655807   -0.6500
      7 C7         -5.3623    1.0685   50.2457 C.2     1  ZINC000817655807    0.5500
      8 O8         -4.6379    0.1112   50.0733 O.2     1  ZINC000817655807   -0.5100
      9 C9         -5.0425    2.3842   49.5841 C.3     1  ZINC000817655807   -0.0900
     10 C10        -3.5521    2.5023   49.3949 C.ar    1  ZINC000817655807   -0.0600
     11 C11        -2.9718    2.0861   48.2116 C.ar    1  ZINC000817655807   -0.0900
     12 C12        -1.6037    2.1910   48.0354 C.ar    1  ZINC000817655807   -0.0300
     13 Cl13       -0.8781    1.6667   46.5480 Cl      1  ZINC000817655807   -0.0500
     14 C14        -0.8111    2.7152   49.0465 C.ar    1  ZINC000817655807    0.0600
     15 O15         0.5346    2.8051   48.8621 O.3     1  ZINC000817655807   -0.2900
     16 C16         1.2487    3.6756   49.7466 C.3     1  ZINC000817655807    0.0200
     17 C17         0.7697    3.4036   51.1791 C.3     1  ZINC000817655807    0.0200
     18 O18        -0.6379    3.6588   51.2372 O.3     1  ZINC000817655807   -0.3000
     19 C19        -1.3960    3.1370   50.2344 C.ar    1  ZINC000817655807    0.0600
     20 C20        -2.7687    3.0320   50.4031 C.ar    1  ZINC000817655807   -0.0900
     21 C21        -7.0544   -0.1438   51.8124 C.3     1  ZINC000817655807    0.1100
     22 O22        -9.0547    0.7218   53.0939 O.3     1  ZINC000817655807   -0.3000
     23 C23        -9.1276    0.9365   54.4162 C.2     1  ZINC000817655807    0.6400
     24 O24       -10.1545    0.8096   55.0534 O.2     1  ZINC000817655807   -0.5100
     25 H25        -8.6891    1.4890   56.9290 H       1  ZINC000817655807    0.0900
     26 H26        -7.0020    0.9379   56.7945 H       1  ZINC000817655807    0.0700
     27 H27        -7.4078    2.6442   56.4904 H       1  ZINC000817655807    0.0700
     28 H28        -6.5346    2.3739   53.8184 H       1  ZINC000817655807    0.1000
     29 H29        -6.1334    0.6533   54.1273 H       1  ZINC000817655807    0.1000
     30 H30        -8.3845    1.8938   50.7764 H       1  ZINC000817655807    0.1100
     31 H31        -7.1702    2.8800   51.7043 H       1  ZINC000817655807    0.1000
     32 H32        -5.5369    2.4327   48.6139 H       1  ZINC000817655807    0.1100
     33 H33        -5.3949    3.2020   50.2127 H       1  ZINC000817655807    0.1100
     34 H34        -3.5872    1.6781   47.4235 H       1  ZINC000817655807    0.1400
     35 H35         2.3180    3.4780   49.6728 H       1  ZINC000817655807    0.1300
     36 H36         1.0470    4.7138   49.4826 H       1  ZINC000817655807    0.0800
     37 H37         0.9659    2.3638   51.4410 H       1  ZINC000817655807    0.0800
     38 H38         1.2917    4.0628   51.8726 H       1  ZINC000817655807    0.1300
     39 H39        -3.2255    3.3610   51.3247 H       1  ZINC000817655807    0.1400
     40 H40        -6.3266   -0.7454   52.3570 H       1  ZINC000817655807    0.1000
     41 H41        -7.7707   -0.7439   51.2512 H       1  ZINC000817655807    0.1100
@<TRIPOS>BOND
     1     1     2    1
     2     1    25    1
     3     1    26    1
     4     1    27    1
     5     2    23   am
     6     2     3    1
     7     3     4    1
     8     3    28    1
     9     3    29    1
    10     4    21    1
    11     4     5    1
    12     4    22    1
    13     5     6    1
    14     5    30    1
    15     5    31    1
    16     6     7   am
    17     6    21    1
    18     7     8    2
    19     7     9    1
    20     9    10    1
    21     9    32    1
    22     9    33    1
    23    10    20   ar
    24    10    11   ar
    25    11    12   ar
    26    11    34    1
    27    12    13    1
    28    12    14   ar
    29    14    19   ar
    30    14    15    1
    31    15    16    1
    32    16    17    1
    33    16    35    1
    34    16    36    1
    35    17    18    1
    36    17    37    1
    37    17    38    1
    38    18    19    1
    39    19    20   ar
    40    20    39    1
    41    21    40    1
    42    21    41    1
    43    22    23    1
    44    23    24    2
@<TRIPOS>SUBSTRUCTURE
     1 ZINC000817655807        1 TEMP              0 ****  ****    0 ROOT


##########                                Name:    ZINC000123469372
##########                DOCK_Rotatable_Bonds:                   7
##########                         Heavy_Atoms:                  25
##########                    Molecular_Weight:             341.382
##########                DOCK_Rotatable_Bonds:                   7
##########                       Formal_Charge:          -0.0300001
##########                     HBond_Acceptors:                   5
##########                        HBond_Donors:                   2
##########                         Heavy_Atoms:                  25
##########                          Grid_Score:          -29.521984
##########                     Grid_vdw_energy:          -28.994125
##########                      Grid_es_energy:           -0.527859
##########           Internal_energy_repulsive:            7.087116

@<TRIPOS>MOLECULE
ZINC000123469372
 45 47 1 0 0
SMALL
USER_CHARGES


@<TRIPOS>ATOM
      1 C1         -8.0296    2.3293   55.1061 C.3     1  ZINC000123469372   -0.1700
      2 C2         -8.1761    1.4239   53.8815 C.3     1  ZINC000123469372    0.1500
      3 H3         -8.1063    0.3809   54.1904 H       1  ZINC000123469372    0.0900
      4 C4         -9.5353    1.6712   53.2240 C.3     1  ZINC000123469372   -0.1600
      5 C5        -10.2082    0.3303   52.9240 C.3     1  ZINC000123469372    0.1500
      6 H6         -9.4885   -0.3404   52.4548 H       1  ZINC000123469372    0.1100
      7 O7        -11.3119    0.5382   52.0405 O.3     1  ZINC000123469372   -0.5500
      8 C8        -10.7022   -0.2825   54.2092 C.ar    1  ZINC000123469372   -0.1200
      9 C9        -11.7331    0.3162   54.9089 C.ar    1  ZINC000123469372   -0.1100
     10 C10       -12.1862   -0.2459   56.0878 C.ar    1  ZINC000123469372   -0.1200
     11 C11       -11.6086   -1.4069   56.5667 C.ar    1  ZINC000123469372   -0.1200
     12 C12       -10.5783   -2.0061   55.8665 C.ar    1  ZINC000123469372   -0.1200
     13 C13       -10.1280   -1.4464   54.6854 C.ar    1  ZINC000123469372   -0.1100
     14 N14        -7.1087    1.7219   52.9234 N.am    1  ZINC000123469372   -0.7100
     15 C15        -6.4360    0.7162   52.3297 C.2     1  ZINC000123469372    0.5700
     16 O16        -6.7143   -0.4397   52.5906 O.2     1  ZINC000123469372   -0.5400
     17 C17        -5.3716    1.0137   51.3719 C.2     1  ZINC000123469372   -0.2200
     18 C18        -4.5734    2.0944   51.5546 C.2     1  ZINC000123469372    0.0000
     19 C19        -3.5316    2.3579   50.5499 C.ar    1  ZINC000123469372   -0.1200
     20 C20        -2.4711    3.2242   50.8112 C.ar    1  ZINC000123469372   -0.0900
     21 C21        -1.5152    3.4425   49.8375 C.ar    1  ZINC000123469372    0.0700
     22 F22        -0.4842    4.2804   50.0831 F       1  ZINC000123469372   -0.1400
     23 C23        -1.6090    2.8048   48.6092 C.ar    1  ZINC000123469372   -0.1100
     24 C24        -2.6577    1.9441   48.3411 C.ar    1  ZINC000123469372   -0.1200
     25 C25        -3.6233    1.7134   49.3038 C.ar    1  ZINC000123469372    0.1300
     26 O26        -4.6640    0.8755   49.0710 O.3     1  ZINC000123469372   -0.3000
     27 C27        -5.1531    0.1170   50.1811 C.3     1  ZINC000123469372    0.1100
     28 H28        -8.8239    2.1076   55.8190 H       1  ZINC000123469372    0.0700
     29 H29        -7.0613    2.1531   55.5745 H       1  ZINC000123469372    0.0600
     30 H30        -8.0994    3.3723   54.7973 H       1  ZINC000123469372    0.0600
     31 H31       -10.1652    2.2510   53.8986 H       1  ZINC000123469372    0.0900
     32 H32        -9.3942    2.2229   52.2946 H       1  ZINC000123469372    0.0800
     33 H33       -11.7627   -0.2754   51.7761 H       1  ZINC000123469372    0.3700
     34 H34       -12.1843    1.2233   54.5348 H       1  ZINC000123469372    0.1200
     35 H35       -12.9912    0.2223   56.6348 H       1  ZINC000123469372    0.1200
     36 H36       -11.9621   -1.8457   57.4880 H       1  ZINC000123469372    0.1200
     37 H37       -10.1268   -2.9130   56.2408 H       1  ZINC000123469372    0.1200
     38 H38        -9.3231   -1.9145   54.1383 H       1  ZINC000123469372    0.1200
     39 H39        -6.8860    2.6430   52.7164 H       1  ZINC000123469372    0.4000
     40 H40        -4.6987    2.7414   52.4103 H       1  ZINC000123469372    0.1500
     41 H41        -2.3974    3.7213   51.7672 H       1  ZINC000123469372    0.1500
     42 H42        -0.8565    2.9824   47.8552 H       1  ZINC000123469372    0.1500
     43 H43        -2.7225    1.4528   47.3815 H       1  ZINC000123469372    0.1500
     44 H44        -4.4305   -0.6589   50.4339 H       1  ZINC000123469372    0.0800
     45 H45        -6.0992   -0.3510   49.9088 H       1  ZINC000123469372    0.1100
@<TRIPOS>BOND
     1     1     2    1
     2     1    28    1
     3     1    29    1
     4     1    30    1
     5     2     3    1
     6     2     4    1
     7     2    14    1
     8     4     5    1
     9     4    31    1
    10     4    32    1
    11     5     6    1
    12     5     7    1
    13     5     8    1
    14     7    33    1
    15     8    13   ar
    16     8     9   ar
    17     9    10   ar
    18     9    34    1
    19    10    11   ar
    20    10    35    1
    21    11    12   ar
    22    11    36    1
    23    12    13   ar
    24    12    37    1
    25    13    38    1
    26    14    15   am
    27    14    39    1
    28    15    16    2
    29    15    17    1
    30    17    27    1
    31    17    18    2
    32    18    19    1
    33    18    40    1
    34    19    25   ar
    35    19    20   ar
    36    20    21   ar
    37    20    41    1
    38    21    22    1
    39    21    23   ar
    40    23    24   ar
    41    23    42    1
    42    24    25   ar
    43    24    43    1
    44    25    26    1
    45    26    27    1
    46    27    44    1
    47    27    45    1
@<TRIPOS>SUBSTRUCTURE
     1 ZINC000123469372        1 TEMP              0 ****  ****    0 ROOT


##########                                Name:    ZINC000673213454
##########                DOCK_Rotatable_Bonds:                   7
##########                         Heavy_Atoms:                  26
##########                    Molecular_Weight:             360.453
##########                DOCK_Rotatable_Bonds:                   7
##########                       Formal_Charge:          -0.0100001
##########                     HBond_Acceptors:                   6
##########                        HBond_Donors:                   1
##########                         Heavy_Atoms:                  26
##########                          Grid_Score:          -29.519005
##########                     Grid_vdw_energy:          -29.262177
##########                      Grid_es_energy:           -0.256829
##########           Internal_energy_repulsive:           15.653640

@<TRIPOS>MOLECULE
ZINC000673213454
 54 56 1 0 0
SMALL
USER_CHARGES


@<TRIPOS>ATOM
      1 C1         -7.8160   -0.7197   51.8094 C.3     1  ZINC000673213454   -0.1700
      2 C2         -7.5164    0.6590   52.4013 C.3     1  ZINC000673213454    0.1400
      3 H3         -8.2048    1.3922   51.9811 H       1  ZINC000673213454    0.0900
      4 C4         -6.0784    1.0575   52.0634 C.3     1  ZINC000673213454   -0.1200
      5 C5         -5.9999    1.4900   50.5980 C.3     1  ZINC000673213454   -0.1300
      6 H6         -6.4378    0.7287   49.9525 H       1  ZINC000673213454    0.0800
      7 C7         -4.5315    1.7655   50.1922 C.3     1  ZINC000673213454   -0.1500
      8 C8         -4.6703    3.0341   49.3126 C.3     1  ZINC000673213454    0.0500
      9 O9         -5.7110    3.7881   49.9706 O.3     1  ZINC000673213454   -0.3800
     10 C10        -6.7108    2.8423   50.3960 C.3     1  ZINC000673213454    0.0500
     11 N11        -7.6812    0.6120   53.8562 N.am    1  ZINC000673213454   -0.6900
     12 C12        -7.8250    1.7553   54.5554 C.2     1  ZINC000673213454    0.5100
     13 O13        -7.8195    2.8235   53.9795 O.2     1  ZINC000673213454   -0.5100
     14 C14        -7.9913    1.7075   56.0398 C.2     1  ZINC000673213454    0.5000
     15 O15        -7.0258    1.8394   56.7631 O.2     1  ZINC000673213454   -0.5200
     16 N16        -9.2135    1.5181   56.5752 N.am    1  ZINC000673213454   -0.5800
     17 C17       -10.3680    1.3611   55.6706 C.3     1  ZINC000673213454    0.1100
     18 C18       -11.3080    0.2515   56.1641 C.3     1  ZINC000673213454   -0.1700
     19 C19       -10.4897   -0.9108   56.6894 C.3     1  ZINC000673213454    0.0800
     20 O20       -10.2763   -0.7268   58.0828 O.3     1  ZINC000673213454   -0.3800
     21 C21        -9.1946    0.0157   58.5112 C.3     1  ZINC000673213454    0.1500
     22 H22        -8.2773   -0.4117   58.1064 H       1  ZINC000673213454    0.0600
     23 C23        -9.1364   -0.0043   60.0169 C.ar    1  ZINC000673213454   -0.0800
     24 C24        -7.9662   -0.3642   60.6587 C.ar    1  ZINC000673213454   -0.0900
     25 C25        -7.9128   -0.3825   62.0399 C.ar    1  ZINC000673213454   -0.1300
     26 C26        -9.0296   -0.0407   62.7793 C.ar    1  ZINC000673213454   -0.1200
     27 C27       -10.1997    0.3200   62.1376 C.ar    1  ZINC000673213454   -0.1300
     28 C28       -10.2517    0.3425   60.7563 C.ar    1  ZINC000673213454   -0.0900
     29 C29        -9.3431    1.4704   58.0199 C.3     1  ZINC000673213454    0.0700
     30 H30        -7.1276   -1.4529   52.2295 H       1  ZINC000673213454    0.0600
     31 H31        -8.8405   -1.0037   52.0500 H       1  ZINC000673213454    0.0600
     32 H32        -7.6934   -0.6849   50.7268 H       1  ZINC000673213454    0.0700
     33 H33        -5.7707    1.8845   52.7034 H       1  ZINC000673213454    0.0800
     34 H34        -5.4174    0.2063   52.2269 H       1  ZINC000673213454    0.0900
     35 H35        -3.9166    1.9658   51.0696 H       1  ZINC000673213454    0.0800
     36 H36        -4.1251    0.9348   49.6154 H       1  ZINC000673213454    0.0800
     37 H37        -3.7371    3.5972   49.3011 H       1  ZINC000673213454    0.0900
     38 H38        -4.9714    2.7676   48.2994 H       1  ZINC000673213454    0.0600
     39 H39        -7.4816    2.7485   49.6311 H       1  ZINC000673213454    0.0600
     40 H40        -7.1559    3.1707   51.3352 H       1  ZINC000673213454    0.0900
     41 H41        -7.6867   -0.2418   54.3164 H       1  ZINC000673213454    0.4100
     42 H42       -10.9173    2.3015   55.6251 H       1  ZINC000673213454    0.0800
     43 H43       -10.0091    1.1088   54.6728 H       1  ZINC000673213454    0.0900
     44 H44       -11.9407    0.6400   56.9621 H       1  ZINC000673213454    0.0800
     45 H45       -11.9331   -0.0886   55.3385 H       1  ZINC000673213454    0.0900
     46 H46       -11.0295   -1.8429   56.5223 H       1  ZINC000673213454    0.1000
     47 H47        -9.5297   -0.9444   56.1740 H       1  ZINC000673213454    0.0500
     48 H48        -7.0937   -0.6312   60.0810 H       1  ZINC000673213454    0.1300
     49 H49        -6.9987   -0.6643   62.5413 H       1  ZINC000673213454    0.1200
     50 H50        -8.9882   -0.0557   63.8584 H       1  ZINC000673213454    0.1200
     51 H51       -11.0723    0.5868   62.7152 H       1  ZINC000673213454    0.1200
     52 H52       -11.1658    0.6244   60.2550 H       1  ZINC000673213454    0.1300
     53 H53        -8.5669    2.0875   58.4724 H       1  ZINC000673213454    0.1200
     54 H54       -10.3232    1.8520   58.3062 H       1  ZINC000673213454    0.0800
@<TRIPOS>BOND
     1     1     2    1
     2     1    30    1
     3     1    31    1
     4     1    32    1
     5     2     3    1
     6     2     4    1
     7     2    11    1
     8     4     5    1
     9     4    33    1
    10     4    34    1
    11     5     6    1
    12     5    10    1
    13     5     7    1
    14     7     8    1
    15     7    35    1
    16     7    36    1
    17     8     9    1
    18     8    37    1
    19     8    38    1
    20     9    10    1
    21    10    39    1
    22    10    40    1
    23    11    12   am
    24    11    41    1
    25    12    13    2
    26    12    14    1
    27    14    15    2
    28    14    16   am
    29    16    29    1
    30    16    17    1
    31    17    18    1
    32    17    42    1
    33    17    43    1
    34    18    19    1
    35    18    44    1
    36    18    45    1
    37    19    20    1
    38    19    46    1
    39    19    47    1
    40    20    21    1
    41    21    22    1
    42    21    23    1
    43    21    29    1
    44    23    28   ar
    45    23    24   ar
    46    24    25   ar
    47    24    48    1
    48    25    26   ar
    49    25    49    1
    50    26    27   ar
    51    26    50    1
    52    27    28   ar
    53    27    51    1
    54    28    52    1
    55    29    53    1
    56    29    54    1
@<TRIPOS>SUBSTRUCTURE
     1 ZINC000673213454        1 TEMP              0 ****  ****    0 ROOT


##########                                Name:    ZINC000022858610
##########                DOCK_Rotatable_Bonds:                   9
##########                         Heavy_Atoms:                  26
##########                    Molecular_Weight:             369.343
##########                DOCK_Rotatable_Bonds:                   9
##########                       Formal_Charge:          0.00999956
##########                     HBond_Acceptors:                   9
##########                        HBond_Donors:                   2
##########                         Heavy_Atoms:                  26
##########                          Grid_Score:          -29.517508
##########                     Grid_vdw_energy:          -29.620028
##########                      Grid_es_energy:            0.102520
##########           Internal_energy_repulsive:           16.836864

@<TRIPOS>MOLECULE
ZINC000022858610
 44 45 1 0 0
SMALL
USER_CHARGES


@<TRIPOS>ATOM
      1 C1         -8.7692    2.8244   53.0351 C.3     1  <0>         0.0100
      2 N2         -7.6656    1.8708   53.2100 N.3     1  <0>        -0.5300
      3 C3         -7.0146    2.0524   54.5143 C.3     1  <0>         0.0200
      4 C4         -8.1329    0.4883   53.0429 C.3     1  <0>         0.1500
      5 H5         -7.4850   -0.1847   53.6044 H       1  <0>         0.1200
      6 C6         -8.0954    0.1130   51.5601 C.3     1  <0>         0.1300
      7 N7         -6.7163    0.1895   51.0717 N.am    1  <0>        -0.6800
      8 C8         -6.3554    1.1728   50.2236 C.2     1  <0>         0.5100
      9 O9         -7.1723    1.9957   49.8656 O.2     1  <0>        -0.5100
     10 C10        -4.9498    1.2497   49.7244 C.2     1  <0>         0.5200
     11 O11        -4.3098    0.2327   49.5537 O.2     1  <0>        -0.4900
     12 N12        -4.3921    2.4487   49.4633 N.am    1  <0>        -0.6500
     13 C13        -3.0771    2.5206   48.9962 C.ar    1  <0>         0.1900
     14 C14        -2.7735    2.1084   47.7049 C.ar    1  <0>        -0.1200
     15 C15        -1.4726    2.1808   47.2466 C.ar    1  <0>        -0.0700
     16 C16        -0.4731    2.6631   48.0715 C.ar    1  <0>        -0.1300
     17 C17        -0.7719    3.0739   49.3579 C.ar    1  <0>        -0.0500
     18 C18        -2.0713    3.0101   49.8206 C.ar    1  <0>        -0.2100
     19 C19        -2.3959    3.4579   51.2223 C.3     1  <0>         0.5100
     20 F20        -3.2648    4.5532   51.1725 F       1  <0>        -0.1700
     21 F21        -3.0072    2.4089   51.9172 F       1  <0>        -0.1800
     22 F22        -1.2169    3.8275   51.8786 F       1  <0>        -0.1700
     23 C23        -9.5451    0.3700   53.5554 C.2     1  <0>        -0.0500
     24 C24        -9.9089    0.2900   54.8479 C.2     1  <0>        -0.1900
     25 C25       -11.3191    0.1927   54.8713 C.2     1  <0>        -0.2100
     26 C26       -11.7329    0.2191   53.5917 C.2     1  <0>        -0.0400
     27 O27       -10.6545    0.3324   52.7992 O.3     1  <0>        -0.1700
     28 H28        -8.3690    3.8366   52.9763 H       1  <0>         0.0700
     29 H29        -9.3075    2.5927   52.1160 H       1  <0>         0.0700
     30 H30        -9.4501    2.7516   53.8832 H       1  <0>         0.0500
     31 H31        -7.7432    1.8934   55.3093 H       1  <0>         0.0300
     32 H32        -6.2014    1.3340   54.6177 H       1  <0>         0.0700
     33 H33        -6.6162    3.0647   54.5837 H       1  <0>         0.0800
     34 H34        -8.4700   -0.9027   51.4327 H       1  <0>         0.0900
     35 H35        -8.7200    0.8042   50.9944 H       1  <0>         0.0800
     36 H36        -6.0630   -0.4675   51.3588 H       1  <0>         0.4200
     37 H37        -4.9036    3.2615   49.5996 H       1  <0>         0.4300
     38 H38        -3.5536    1.7314   47.0602 H       1  <0>         0.1500
     39 H39        -1.2358    1.8603   46.2428 H       1  <0>         0.1400
     40 H40         0.5432    2.7186   47.7105 H       1  <0>         0.1400
     41 H41         0.0113    3.4493   49.9998 H       1  <0>         0.1500
     42 H42        -9.2499    0.2979   55.7035 H       1  <0>         0.1500
     43 H43       -11.9443    0.1123   55.7484 H       1  <0>         0.1500
     44 H44       -12.7586    0.1628   53.2583 H       1  <0>         0.2000
@<TRIPOS>BOND
     1     1     2    1
     2     1    28    1
     3     1    29    1
     4     1    30    1
     5     2     3    1
     6     2     4    1
     7     3    31    1
     8     3    32    1
     9     3    33    1
    10     4     5    1
    11     4     6    1
    12     4    23    1
    13     6     7    1
    14     6    34    1
    15     6    35    1
    16     7     8   am
    17     7    36    1
    18     8     9    2
    19     8    10    1
    20    10    11    2
    21    10    12   am
    22    12    13    1
    23    12    37    1
    24    13    18   ar
    25    13    14   ar
    26    14    15   ar
    27    14    38    1
    28    15    16   ar
    29    15    39    1
    30    16    17   ar
    31    16    40    1
    32    17    18   ar
    33    17    41    1
    34    18    19    1
    35    19    20    1
    36    19    21    1
    37    19    22    1
    38    23    27    1
    39    23    24    2
    40    24    25    1
    41    24    42    1
    42    25    26    2
    43    25    43    1
    44    26    27    1
    45    26    44    1
@<TRIPOS>SUBSTRUCTURE
     1 <0>         1 TEMP              0 ****  ****    0 ROOT


##########                                Name:    ZINC001345266033
##########                DOCK_Rotatable_Bonds:                   4
##########                         Heavy_Atoms:                  29
##########                    Molecular_Weight:               389.5
##########                DOCK_Rotatable_Bonds:                   4
##########                       Formal_Charge:          -0.0100001
##########                     HBond_Acceptors:                   6
##########                        HBond_Donors:                   0
##########                         Heavy_Atoms:                  29
##########                          Grid_Score:          -29.478777
##########                     Grid_vdw_energy:          -29.751534
##########                      Grid_es_energy:            0.272757
##########           Internal_energy_repulsive:           11.784545

@<TRIPOS>MOLECULE
ZINC001345266033
 56 61 1 0 0
SMALL
USER_CHARGES


@<TRIPOS>ATOM
      1 C1         -0.9787    4.4617   52.2153 C.ar    1  ZINC001345266033   -0.1100
      2 C2         -2.0638    3.9886   52.9487 C.ar    1  ZINC001345266033   -0.0900
      3 C3         -3.0312    3.2279   52.3592 C.ar    1  ZINC001345266033   -0.1100
      4 C4         -2.9298    2.9210   51.0003 C.ar    1  ZINC001345266033    0.0000
      5 C5         -1.8264    3.4012   50.2490 C.ar    1  ZINC001345266033   -0.1100
      6 C6         -0.8498    4.1806   50.8882 C.ar    1  ZINC001345266033   -0.0900
      7 C7         -1.7494    3.0783   48.8846 C.ar    1  ZINC001345266033    0.1700
      8 N8         -2.6759    2.3481   48.3120 N.ar    1  ZINC001345266033   -0.4800
      9 C9         -3.7301    1.8677   48.9500 C.ar    1  ZINC001345266033    0.0900
     10 C10        -3.9287    2.1121   50.3027 C.ar    1  ZINC001345266033   -0.0700
     11 C11        -5.1058    1.5744   51.0109 C.2     1  ZINC001345266033    0.2300
     12 N12        -5.3608    0.3083   51.2532 N.2     1  ZINC001345266033   -0.2600
     13 N13        -6.4711    0.1997   51.8912 N.2     1  ZINC001345266033   -0.3000
     14 C14        -6.9929    1.3884   52.0953 C.2     1  ZINC001345266033    0.3600
     15 N15        -8.1818    1.6612   52.7483 N.3     1  ZINC001345266033   -0.4600
     16 C16        -9.2029    0.6581   52.4228 C.3     1  ZINC001345266033    0.0600
     17 C17       -10.5603    1.0989   52.9743 C.3     1  ZINC001345266033   -0.1100
     18 C18       -10.4768    1.1942   54.5024 C.3     1  ZINC001345266033   -0.0800
     19 C19        -9.3065    2.1130   54.8693 C.3     1  ZINC001345266033   -0.1300
     20 C20        -9.6109    3.5910   55.1080 C.3     1  ZINC001345266033   -0.1600
     21 C21        -9.2638    2.6796   56.2873 C.3     1  ZINC001345266033   -0.1700
     22 C22        -7.9752    1.7573   54.2010 C.3     1  ZINC001345266033    0.1100
     23 N23        -6.1416    2.3042   51.5483 N.pl3   1  ZINC001345266033   -0.4600
     24 C24        -6.3013    3.7604   51.5297 C.3     1  ZINC001345266033    0.1000
     25 C25        -6.5044    4.2327   50.0886 C.3     1  ZINC001345266033   -0.1400
     26 H26        -5.5665    4.1818   49.5357 H       1  ZINC001345266033    0.1000
     27 C27        -7.0694    5.6739   50.0654 C.3     1  ZINC001345266033   -0.1500
     28 C28        -8.1094    5.5964   48.9186 C.3     1  ZINC001345266033    0.0500
     29 O29        -8.6741    4.2757   49.0648 O.3     1  ZINC001345266033   -0.3700
     30 C30        -7.5880    3.3875   49.3917 C.3     1  ZINC001345266033    0.0300
     31 H31        -0.2291    5.0653   52.7054 H       1  ZINC001345266033    0.1300
     32 H32        -2.1406    4.2269   53.9993 H       1  ZINC001345266033    0.1300
     33 H33        -3.8678    2.8661   52.9384 H       1  ZINC001345266033    0.1600
     34 H34        -0.0029    4.5551   50.3324 H       1  ZINC001345266033    0.1400
     35 H35        -0.9158    3.4364   48.2987 H       1  ZINC001345266033    0.1700
     36 H36        -4.4512    1.2736   48.4082 H       1  ZINC001345266033    0.1700
     37 H37        -9.2703    0.5481   51.3405 H       1  ZINC001345266033    0.0700
     38 H38        -8.9253   -0.2982   52.8660 H       1  ZINC001345266033    0.0500
     39 H39       -10.8216    2.0737   52.5624 H       1  ZINC001345266033    0.0800
     40 H40       -11.3207    0.3694   52.6960 H       1  ZINC001345266033    0.0800
     41 H41       -11.4051    1.6094   54.8947 H       1  ZINC001345266033    0.0700
     42 H42       -10.3093    0.2025   54.9225 H       1  ZINC001345266033    0.0700
     43 H43        -8.8603    4.3166   54.7945 H       1  ZINC001345266033    0.0900
     44 H44       -10.6474    3.9138   55.0094 H       1  ZINC001345266033    0.0900
     45 H45       -10.0717    2.4028   56.9645 H       1  ZINC001345266033    0.1000
     46 H46        -8.2847    2.8056   56.7497 H       1  ZINC001345266033    0.1000
     47 H47        -7.6190    0.8007   54.5832 H       1  ZINC001345266033    0.0600
     48 H48        -7.2407    2.5340   54.4146 H       1  ZINC001345266033    0.0800
     49 H49        -7.1684    4.0386   52.1288 H       1  ZINC001345266033    0.1100
     50 H50        -5.4084    4.2292   51.9433 H       1  ZINC001345266033    0.1100
     51 H51        -7.5516    5.9180   51.0119 H       1  ZINC001345266033    0.0800
     52 H52        -6.2861    6.3951   49.8320 H       1  ZINC001345266033    0.0900
     53 H53        -8.8780    6.3587   49.0454 H       1  ZINC001345266033    0.1000
     54 H54        -7.6208    5.6998   47.9498 H       1  ZINC001345266033    0.0600
     55 H55        -7.1866    2.9424   48.4813 H       1  ZINC001345266033    0.0600
     56 H56        -7.9385    2.6058   50.0656 H       1  ZINC001345266033    0.0900
@<TRIPOS>BOND
     1     1     6   ar
     2     1     2   ar
     3     1    31    1
     4     2     3   ar
     5     2    32    1
     6     3     4   ar
     7     3    33    1
     8     4    10   ar
     9     4     5   ar
    10     5     6   ar
    11     5     7   ar
    12     6    34    1
    13     7     8   ar
    14     7    35    1
    15     8     9   ar
    16     9    10   ar
    17     9    36    1
    18    10    11    1
    19    11    23    1
    20    11    12    2
    21    12    13    1
    22    13    14    2
    23    14    15    1
    24    14    23    1
    25    15    22    1
    26    15    16    1
    27    16    17    1
    28    16    37    1
    29    16    38    1
    30    17    18    1
    31    17    39    1
    32    17    40    1
    33    18    19    1
    34    18    41    1
    35    18    42    1
    36    19    21    1
    37    19    20    1
    38    19    22    1
    39    20    21    1
    40    20    43    1
    41    20    44    1
    42    21    45    1
    43    21    46    1
    44    22    47    1
    45    22    48    1
    46    23    24    1
    47    24    25    1
    48    24    49    1
    49    24    50    1
    50    25    26    1
    51    25    30    1
    52    25    27    1
    53    27    28    1
    54    27    51    1
    55    27    52    1
    56    28    29    1
    57    28    53    1
    58    28    54    1
    59    29    30    1
    60    30    55    1
    61    30    56    1
@<TRIPOS>SUBSTRUCTURE
     1 ZINC001345266033        1 TEMP              0 ****  ****    0 ROOT


##########                                Name:    ZINC000866034032
##########                DOCK_Rotatable_Bonds:                   4
##########                         Heavy_Atoms:                  23
##########                    Molecular_Weight:             383.242
##########                DOCK_Rotatable_Bonds:                   4
##########                       Formal_Charge:           0.0199999
##########                     HBond_Acceptors:                   6
##########                        HBond_Donors:                   1
##########                         Heavy_Atoms:                  23
##########                          Grid_Score:          -29.466015
##########                     Grid_vdw_energy:          -29.589672
##########                      Grid_es_energy:            0.123656
##########           Internal_energy_repulsive:           14.388798

@<TRIPOS>MOLECULE
ZINC000866034032
 42 44 1 0 0
SMALL
USER_CHARGES


@<TRIPOS>ATOM
      1 C1         -8.7786    0.4478   53.7762 C.3     1  ZINC000866034032   -0.1300
      2 C2         -7.9748    1.2336   52.7381 C.3     1  ZINC000866034032   -0.0800
      3 C3         -8.4998    2.6564   52.5351 C.3     1  ZINC000866034032   -0.1300
      4 C4         -6.4557    1.1639   52.9572 C.3     1  ZINC000866034032    0.1400
      5 H5         -6.1738    0.9547   53.9892 H       1  ZINC000866034032    0.1100
      6 N6         -5.7300    2.3034   52.3906 N.am    1  ZINC000866034032   -0.7000
      7 C7         -5.3979    3.3481   53.1746 C.2     1  ZINC000866034032    0.5100
      8 O8         -5.7010    3.3454   54.3489 O.2     1  ZINC000866034032   -0.5300
      9 C9         -4.6499    4.5196   52.5922 C.3     1  ZINC000866034032   -0.1100
     10 C10        -3.4048    4.0270   51.9006 C.ar    1  ZINC000866034032   -0.0500
     11 C11        -2.1913    4.0526   52.5618 C.ar    1  ZINC000866034032   -0.0500
     12 C12        -1.0488    3.6013   51.9277 C.ar    1  ZINC000866034032   -0.0900
     13 C13        -1.1203    3.1238   50.6316 C.ar    1  ZINC000866034032   -0.0500
     14 Br14        0.4420    2.5058   49.7639 Br      1  ZINC000866034032    0.0200
     15 C15        -2.3352    3.0981   49.9704 C.ar    1  ZINC000866034032   -0.0200
     16 N16        -2.4124    2.5868   48.5836 N.pl3   1  ZINC000866034032    0.0200
     17 O17        -3.4822    2.5641   48.0016 O.2     1  ZINC000866034032   -0.1600
     18 O18        -1.4063    2.1886   48.0244 O.2     1  ZINC000866034032   -0.1300
     19 C19        -3.4777    3.5445   50.6070 C.ar    1  ZINC000866034032   -0.0300
     20 C20        -6.4485   -0.0807   52.0546 C.3     1  ZINC000866034032   -0.1500
     21 H21        -6.5087   -1.0450   52.5592 H       1  ZINC000866034032    0.1200
     22 C22        -5.4044    0.0073   50.9193 C.3     1  ZINC000866034032   -0.1400
     23 C23        -6.1908    0.5980   49.7285 C.3     1  ZINC000866034032    0.0500
     24 O24        -7.2904    1.3141   50.3314 O.3     1  ZINC000866034032   -0.3600
     25 C25        -7.7546    0.4680   51.4252 C.3     1  ZINC000866034032    0.0600
     26 H26        -8.5145   -0.2630   51.1493 H       1  ZINC000866034032    0.1000
     27 H27        -8.4602   -0.5946   53.7692 H       1  ZINC000866034032    0.0600
     28 H28        -8.6085    0.8731   54.7653 H       1  ZINC000866034032    0.0700
     29 H29        -9.8397    0.5053   53.5336 H       1  ZINC000866034032    0.0700
     30 H30        -8.2912    3.2510   53.4245 H       1  ZINC000866034032    0.0600
     31 H31        -8.0065    3.1062   51.6735 H       1  ZINC000866034032    0.0600
     32 H32        -9.5757    2.6255   52.3628 H       1  ZINC000866034032    0.0600
     33 H33        -5.4886    2.3061   51.4511 H       1  ZINC000866034032    0.4100
     34 H34        -5.2857    5.0349   51.8722 H       1  ZINC000866034032    0.1100
     35 H35        -4.3738    5.2079   53.3910 H       1  ZINC000866034032    0.1200
     36 H36        -2.1356    4.4255   53.5738 H       1  ZINC000866034032    0.1500
     37 H37        -0.1005    3.6219   52.4441 H       1  ZINC000866034032    0.1600
     38 H38        -4.4263    3.5241   50.0910 H       1  ZINC000866034032    0.1600
     39 H39        -4.5868    0.6698   51.2032 H       1  ZINC000866034032    0.0800
     40 H40        -5.0250   -0.9843   50.6719 H       1  ZINC000866034032    0.0800
     41 H41        -5.5605    1.2807   49.1587 H       1  ZINC000866034032    0.0900
     42 H42        -6.5641   -0.2001   49.0869 H       1  ZINC000866034032    0.0600
@<TRIPOS>BOND
     1     1     2    1
     2     1    27    1
     3     1    28    1
     4     1    29    1
     5     2    25    1
     6     2     3    1
     7     2     4    1
     8     3    30    1
     9     3    31    1
    10     3    32    1
    11     4     5    1
    12     4     6    1
    13     4    20    1
    14     6     7   am
    15     6    33    1
    16     7     8    2
    17     7     9    1
    18     9    10    1
    19     9    34    1
    20     9    35    1
    21    10    19   ar
    22    10    11   ar
    23    11    12   ar
    24    11    36    1
    25    12    13   ar
    26    12    37    1
    27    13    14    1
    28    13    15   ar
    29    15    16    1
    30    15    19   ar
    31    16    17    2
    32    16    18    2
    33    19    38    1
    34    20    21    1
    35    20    25    1
    36    20    22    1
    37    22    23    1
    38    22    39    1
    39    22    40    1
    40    23    24    1
    41    23    41    1
    42    23    42    1
    43    24    25    1
    44    25    26    1
@<TRIPOS>SUBSTRUCTURE
     1 ZINC000866034032        1 TEMP              0 ****  ****    0 ROOT


##########                                Name:    ZINC000053543817
##########                DOCK_Rotatable_Bonds:                   7
##########                         Heavy_Atoms:                  25
##########                    Molecular_Weight:             350.458
##########                DOCK_Rotatable_Bonds:                   7
##########                       Formal_Charge:           0.0199998
##########                     HBond_Acceptors:                   6
##########                        HBond_Donors:                   2
##########                         Heavy_Atoms:                  25
##########                          Grid_Score:          -29.462570
##########                     Grid_vdw_energy:          -26.620708
##########                      Grid_es_energy:           -2.841862
##########           Internal_energy_repulsive:           11.542990

@<TRIPOS>MOLECULE
ZINC000053543817
 55 56 1 0 0
SMALL
USER_CHARGES


@<TRIPOS>ATOM
      1 C1         -1.1040    1.8346   46.6537 C.3     1  ZINC000053543817   -0.0700
      2 C2         -1.9409    2.1627   47.8633 C.2     1  ZINC000053543817   -0.0200
      3 C3         -1.5865    2.9920   48.8648 C.2     1  ZINC000053543817   -0.1800
      4 C4         -2.6581    3.0045   49.7756 C.2     1  ZINC000053543817   -0.1900
      5 C5         -3.6089    2.1844   49.2828 C.2     1  ZINC000053543817    0.0000
      6 C6         -4.9291    1.9204   49.9651 C.3     1  ZINC000053543817   -0.0300
      7 C7         -5.1593    3.0140   51.0150 C.3     1  ZINC000053543817   -0.0500
      8 C8         -5.4374    4.3445   50.3126 C.3     1  ZINC000053543817   -0.1500
      9 C9         -6.3584    2.6381   51.8879 C.3     1  ZINC000053543817   -0.1400
     10 C10        -3.9126    3.1516   51.8932 C.3     1  ZINC000053543817   -0.1200
     11 C11        -2.7742    3.7672   51.0695 C.3     1  ZINC000053543817    0.2200
     12 H12        -2.9966    4.8135   50.8606 H       1  ZINC000053543817    0.1000
     13 N13        -1.5169    3.6693   51.8150 N.am    1  ZINC000053543817   -0.7100
     14 C14        -0.6346    4.6877   51.7850 C.2     1  ZINC000053543817    0.5100
     15 O15        -0.8808    5.6845   51.1395 O.2     1  ZINC000053543817   -0.5300
     16 C16         0.6579    4.5877   52.5534 C.3     1  ZINC000053543817    0.1400
     17 H17         0.9934    5.5867   52.8318 H       1  ZINC000053543817    0.1200
     18 C18         1.7203    3.9180   51.6795 C.3     1  ZINC000053543817   -0.1600
     19 N19         0.4462    3.7889   53.7631 N.am    1  ZINC000053543817   -0.7000
     20 C20        -0.1948    4.3247   54.8208 C.2     1  ZINC000053543817    0.6600
     21 O21        -0.5956    5.4707   54.7716 O.2     1  ZINC000053543817   -0.5700
     22 O22        -0.3907    3.5901   55.9319 O.3     1  ZINC000053543817   -0.3600
     23 C23         0.5195    3.8158   57.0405 C.3     1  ZINC000053543817    0.1400
     24 C24         0.3902    2.6714   58.0476 C.3     1  ZINC000053543817   -0.1800
     25 C25         1.9559    3.8748   56.5171 C.3     1  ZINC000053543817   -0.1400
     26 C26         0.1713    5.1392   57.7248 C.3     1  ZINC000053543817   -0.1800
     27 O27        -3.1701    1.6817   48.1227 O.3     1  ZINC000053543817   -0.1700
     28 H28        -1.6482    1.1412   46.0125 H       1  ZINC000053543817    0.0800
     29 H29        -0.8903    2.7493   46.1008 H       1  ZINC000053543817    0.0800
     30 H30        -0.1681    1.3759   46.9730 H       1  ZINC000053543817    0.0800
     31 H31        -0.6598    3.5399   48.9512 H       1  ZINC000053543817    0.1400
     32 H32        -5.7329    1.9438   49.2292 H       1  ZINC000053543817    0.0900
     33 H33        -4.9016    0.9454   50.4515 H       1  ZINC000053543817    0.0900
     34 H34        -6.3256    4.2472   49.6883 H       1  ZINC000053543817    0.0600
     35 H35        -5.6011    5.1220   51.0588 H       1  ZINC000053543817    0.0600
     36 H36        -4.5835    4.6122   49.6903 H       1  ZINC000053543817    0.0600
     37 H37        -6.1608    1.6900   52.3879 H       1  ZINC000053543817    0.0600
     38 H38        -6.5223    3.4153   52.6343 H       1  ZINC000053543817    0.0600
     39 H39        -7.2465    2.5412   51.2631 H       1  ZINC000053543817    0.0600
     40 H40        -4.1361    3.7963   52.7432 H       1  ZINC000053543817    0.0800
     41 H41        -3.6108    2.1677   52.2525 H       1  ZINC000053543817    0.0700
     42 H42        -1.3195    2.8716   52.3303 H       1  ZINC000053543817    0.4000
     43 H43         1.8778    4.5123   50.7794 H       1  ZINC000053543817    0.0800
     44 H44         2.6551    3.8456   52.2353 H       1  ZINC000053543817    0.0800
     45 H45         1.3847    2.9189   51.4012 H       1  ZINC000053543817    0.0700
     46 H46         0.7672    2.8745   53.8029 H       1  ZINC000053543817    0.4200
     47 H47         0.6382    1.7286   57.5601 H       1  ZINC000053543817    0.0600
     48 H48         1.0734    2.8408   58.8799 H       1  ZINC000053543817    0.0700
     49 H49        -0.6333    2.6294   58.4205 H       1  ZINC000053543817    0.0900
     50 H50         2.0480    4.6901   55.7996 H       1  ZINC000053543817    0.0700
     51 H51         2.6392    4.0442   57.3494 H       1  ZINC000053543817    0.0800
     52 H52         2.2040    2.9320   56.0296 H       1  ZINC000053543817    0.0700
     53 H53        -0.8521    5.0972   58.0976 H       1  ZINC000053543817    0.0900
     54 H54         0.8545    5.3087   58.5570 H       1  ZINC000053543817    0.0700
     55 H55         0.2633    5.9545   57.0073 H       1  ZINC000053543817    0.0600
@<TRIPOS>BOND
     1     1     2    1
     2     1    28    1
     3     1    29    1
     4     1    30    1
     5     2    27    1
     6     2     3    2
     7     3     4    1
     8     3    31    1
     9     4    11    1
    10     4     5    2
    11     5     6    1
    12     5    27    1
    13     6     7    1
    14     6    32    1
    15     6    33    1
    16     7     8    1
    17     7     9    1
    18     7    10    1
    19     8    34    1
    20     8    35    1
    21     8    36    1
    22     9    37    1
    23     9    38    1
    24     9    39    1
    25    10    11    1
    26    10    40    1
    27    10    41    1
    28    11    12    1
    29    11    13    1
    30    13    14   am
    31    13    42    1
    32    14    15    2
    33    14    16    1
    34    16    17    1
    35    16    18    1
    36    16    19    1
    37    18    43    1
    38    18    44    1
    39    18    45    1
    40    19    20   am
    41    19    46    1
    42    20    21    2
    43    20    22    1
    44    22    23    1
    45    23    24    1
    46    23    25    1
    47    23    26    1
    48    24    47    1
    49    24    48    1
    50    24    49    1
    51    25    50    1
    52    25    51    1
    53    25    52    1
    54    26    53    1
    55    26    54    1
    56    26    55    1
@<TRIPOS>SUBSTRUCTURE
     1 ZINC000053543817        1 TEMP              0 ****  ****    0 ROOT


##########                                Name:    ZINC000119180466
##########                DOCK_Rotatable_Bonds:                  10
##########                         Heavy_Atoms:                  23
##########                    Molecular_Weight:             350.405
##########                DOCK_Rotatable_Bonds:                  10
##########                       Formal_Charge:           0.0299997
##########                     HBond_Acceptors:                   8
##########                        HBond_Donors:                   3
##########                         Heavy_Atoms:                  23
##########                          Grid_Score:          -29.448355
##########                     Grid_vdw_energy:          -27.070353
##########                      Grid_es_energy:           -2.378003
##########           Internal_energy_repulsive:           15.358654

@<TRIPOS>MOLECULE
ZINC000119180466
 44 44 1 0 0
SMALL
USER_CHARGES


@<TRIPOS>ATOM
      1 C1         -4.9608   -0.0713   50.2184 C.3     1  ZINC000119180466   -0.1300
      2 S2         -5.9578    0.2325   51.7031 S.3     1  ZINC000119180466   -0.2200
      3 C3         -6.7378    1.8318   51.3505 C.3     1  ZINC000119180466   -0.0700
      4 H4         -7.7635    1.8250   51.7192 H       1  ZINC000119180466    0.1100
      5 C5         -6.7404    2.0761   49.8402 C.3     1  ZINC000119180466    0.0800
      6 O6         -7.5535    3.2131   49.5430 O.3     1  ZINC000119180466   -0.5600
      7 C7         -5.9533    2.9461   52.0461 C.3     1  ZINC000119180466    0.1900
      8 H8         -6.1146    3.8870   51.5198 H       1  ZINC000119180466    0.1000
      9 C9         -6.4338    3.0819   53.4923 C.3     1  ZINC000119180466   -0.1700
     10 N10        -4.5255    2.6186   52.0345 N.am    1  ZINC000119180466   -0.7200
     11 C11        -3.6838    3.3018   51.2336 C.2     1  ZINC000119180466    0.7100
     12 O12        -4.1094    4.1911   50.5219 O.2     1  ZINC000119180466   -0.6000
     13 N13        -2.3705    2.9995   51.2218 N.am    1  ZINC000119180466   -0.7400
     14 C14        -1.4553    3.7434   50.3526 C.3     1  ZINC000119180466    0.2000
     15 H15        -2.0043    4.1323   49.4951 H       1  ZINC000119180466    0.1000
     16 C16        -0.8410    4.9060   51.1349 C.3     1  ZINC000119180466   -0.1600
     17 C17        -0.3601    2.8257   49.8738 C.ar    1  ZINC000119180466   -0.0600
     18 C18        -0.2024    2.5842   48.5218 C.ar    1  ZINC000119180466   -0.1100
     19 C19         0.8022    1.7423   48.0827 C.ar    1  ZINC000119180466   -0.0600
     20 C20         1.6494    1.1423   48.9954 C.ar    1  ZINC000119180466   -0.1800
     21 C21         2.7442    0.2241   48.5167 C.3     1  ZINC000119180466    0.5100
     22 F22         2.3354   -0.4163   47.3419 F       1  ZINC000119180466   -0.1800
     23 F23         3.9006    0.9695   48.2632 F       1  ZINC000119180466   -0.1800
     24 F24         3.0131   -0.7336   49.5005 F       1  ZINC000119180466   -0.1800
     25 C25         1.4926    1.3847   50.3472 C.ar    1  ZINC000119180466   -0.0600
     26 C26         0.4903    2.2297   50.7862 C.ar    1  ZINC000119180466   -0.1100
     27 H27        -4.2338    0.7319   50.0983 H       1  ZINC000119180466    0.0800
     28 H28        -4.4379   -1.0224   50.3202 H       1  ZINC000119180466    0.1000
     29 H29        -5.6114   -0.1062   49.3445 H       1  ZINC000119180466    0.0800
     30 H30        -5.7211    2.2595   49.5001 H       1  ZINC000119180466    0.0500
     31 H31        -7.1411    1.1997   49.3310 H       1  ZINC000119180466    0.0600
     32 H32        -7.6310    3.4050   48.5984 H       1  ZINC000119180466    0.3800
     33 H33        -6.2726    2.1410   54.0186 H       1  ZINC000119180466    0.0700
     34 H34        -5.8749    3.8758   53.9878 H       1  ZINC000119180466    0.0700
     35 H35        -7.4961    3.3256   53.5010 H       1  ZINC000119180466    0.0700
     36 H36        -4.1857    1.9101   52.6032 H       1  ZINC000119180466    0.4100
     37 H37        -2.0312    2.2893   51.7887 H       1  ZINC000119180466    0.4000
     38 H38        -0.1602    5.4594   50.4883 H       1  ZINC000119180466    0.0700
     39 H39        -1.6333    5.5697   51.4812 H       1  ZINC000119180466    0.0700
     40 H40        -0.2920    4.5170   51.9924 H       1  ZINC000119180466    0.0600
     41 H41        -0.8643    3.0530   47.8088 H       1  ZINC000119180466    0.1300
     42 H42         0.9250    1.5532   47.0265 H       1  ZINC000119180466    0.1400
     43 H43         2.1546    0.9161   51.0603 H       1  ZINC000119180466    0.1400
     44 H44         0.3677    2.4191   51.8424 H       1  ZINC000119180466    0.1400
@<TRIPOS>BOND
     1     1     2    1
     2     1    27    1
     3     1    28    1
     4     1    29    1
     5     2     3    1
     6     3     4    1
     7     3     5    1
     8     3     7    1
     9     5     6    1
    10     5    30    1
    11     5    31    1
    12     6    32    1
    13     7     8    1
    14     7     9    1
    15     7    10    1
    16     9    33    1
    17     9    34    1
    18     9    35    1
    19    10    11   am
    20    10    36    1
    21    11    12    2
    22    11    13   am
    23    13    14    1
    24    13    37    1
    25    14    15    1
    26    14    16    1
    27    14    17    1
    28    16    38    1
    29    16    39    1
    30    16    40    1
    31    17    26   ar
    32    17    18   ar
    33    18    19   ar
    34    18    41    1
    35    19    20   ar
    36    19    42    1
    37    20    21    1
    38    20    25   ar
    39    21    22    1
    40    21    23    1
    41    21    24    1
    42    25    26   ar
    43    25    43    1
    44    26    44    1
@<TRIPOS>SUBSTRUCTURE
     1 ZINC000119180466        1 TEMP              0 ****  ****    0 ROOT


##########                                Name:    ZINC000774689801
##########                DOCK_Rotatable_Bonds:                   4
##########                         Heavy_Atoms:                  24
##########                    Molecular_Weight:             347.395
##########                DOCK_Rotatable_Bonds:                   4
##########                       Formal_Charge:         -0.00999961
##########                     HBond_Acceptors:                   8
##########                        HBond_Donors:                   1
##########                         Heavy_Atoms:                  24
##########                          Grid_Score:          -29.445917
##########                     Grid_vdw_energy:          -28.579790
##########                      Grid_es_energy:           -0.866127
##########           Internal_energy_repulsive:            4.676461

@<TRIPOS>MOLECULE
ZINC000774689801
 41 44 1 0 0
SMALL
USER_CHARGES


@<TRIPOS>ATOM
      1 C1         -4.8260    4.0600   50.1647 C.3     1  ZINC000774689801   -0.1200
      2 C2         -5.0566    2.5718   50.1052 C.2     1  ZINC000774689801    0.0600
      3 C3         -4.1772    1.7327   49.5349 C.2     1  ZINC000774689801   -0.2800
      4 C4         -2.9153    2.1413   48.9144 C.2     1  ZINC000774689801    0.5500
      5 O5         -2.7383    1.9662   47.7239 O.2     1  ZINC000774689801   -0.4900
      6 O6         -1.9491    2.7120   49.6632 O.3     1  ZINC000774689801   -0.3400
      7 C7         -0.7100    3.0566   48.9892 C.3     1  ZINC000774689801    0.0900
      8 C8          0.2683    3.6610   49.9983 C.3     1  ZINC000774689801   -0.1300
      9 H9          1.2086    3.9176   49.5102 H       1  ZINC000774689801    0.1200
     10 C10        -0.3500    4.9085   50.6712 C.3     1  ZINC000774689801   -0.1300
     11 C11         0.1892    4.7880   52.1138 C.3     1  ZINC000774689801    0.1000
     12 N12         0.4524    3.3583   52.3154 N.am    1  ZINC000774689801   -0.7400
     13 C13         0.5103    2.7006   51.1419 C.2     1  ZINC000774689801    0.5200
     14 O14         0.7214    1.5124   51.0211 O.2     1  ZINC000774689801   -0.5100
     15 S15        -4.7516    0.0771   49.6378 S.3     1  ZINC000774689801    0.3000
     16 C16        -6.2128    0.5850   50.4764 C.2     1  ZINC000774689801    0.1000
     17 C17        -6.1944    1.9736   50.6435 C.2     1  ZINC000774689801   -0.2500
     18 C18        -7.3502    2.5779   51.3330 C.2     1  ZINC000774689801    0.5700
     19 O19        -7.4065    3.7810   51.5148 O.2     1  ZINC000774689801   -0.5000
     20 N20        -8.3470    1.7671   51.7591 N.am    1  ZINC000774689801   -0.5500
     21 C21        -9.5876    2.1250   52.4683 C.3     1  ZINC000774689801    0.0900
     22 C22       -10.5246    0.9107   52.3034 C.3     1  ZINC000774689801   -0.1300
     23 C23        -9.5162   -0.2431   52.1152 C.3     1  ZINC000774689801   -0.0800
     24 C24        -8.2764    0.4284   51.5483 C.2     1  ZINC000774689801    0.4200
     25 N25        -7.2566   -0.1212   50.9440 N.2     1  ZINC000774689801   -0.5100
     26 H26        -4.2863    4.3077   51.0787 H       1  ZINC000774689801    0.0800
     27 H27        -4.2392    4.3715   49.3006 H       1  ZINC000774689801    0.1000
     28 H28        -5.7856    4.5769   50.1578 H       1  ZINC000774689801    0.0800
     29 H29        -0.2726    2.1592   48.5517 H       1  ZINC000774689801    0.0900
     30 H30        -0.9143    3.7822   48.2018 H       1  ZINC000774689801    0.0800
     31 H31         0.0050    5.8236   50.1972 H       1  ZINC000774689801    0.1000
     32 H32        -1.4388    4.8603   50.6564 H       1  ZINC000774689801    0.0900
     33 H33         1.1109    5.3600   52.2210 H       1  ZINC000774689801    0.0800
     34 H34        -0.5578    5.1381   52.8261 H       1  ZINC000774689801    0.0800
     35 H35         0.5712    2.9407   53.1828 H       1  ZINC000774689801    0.4100
     36 H36        -9.3808    2.3007   53.5240 H       1  ZINC000774689801    0.1000
     37 H37       -10.0363    3.0108   52.0190 H       1  ZINC000774689801    0.1000
     38 H38       -11.1278    0.7592   53.1987 H       1  ZINC000774689801    0.1100
     39 H39       -11.1573    1.0232   51.4230 H       1  ZINC000774689801    0.0900
     40 H40        -9.2910   -0.7124   53.0729 H       1  ZINC000774689801    0.1200
     41 H41        -9.9061   -0.9790   51.4119 H       1  ZINC000774689801    0.1200
@<TRIPOS>BOND
     1     1     2    1
     2     1    26    1
     3     1    27    1
     4     1    28    1
     5     2    17    1
     6     2     3    2
     7     3     4    1
     8     3    15    1
     9     4     5    2
    10     4     6    1
    11     6     7    1
    12     7     8    1
    13     7    29    1
    14     7    30    1
    15     8     9    1
    16     8    13    1
    17     8    10    1
    18    10    11    1
    19    10    31    1
    20    10    32    1
    21    11    12    1
    22    11    33    1
    23    11    34    1
    24    12    13   am
    25    12    35    1
    26    13    14    2
    27    15    16    1
    28    16    25    1
    29    16    17    2
    30    17    18    1
    31    18    19    2
    32    18    20   am
    33    20    24    1
    34    20    21    1
    35    21    22    1
    36    21    36    1
    37    21    37    1
    38    22    23    1
    39    22    38    1
    40    22    39    1
    41    23    24    1
    42    23    40    1
    43    23    41    1
    44    24    25    2
@<TRIPOS>SUBSTRUCTURE
     1 ZINC000774689801        1 TEMP              0 ****  ****    0 ROOT


##########                                Name:    ZINC000459459628
##########                DOCK_Rotatable_Bonds:                   8
##########                         Heavy_Atoms:                  27
##########                    Molecular_Weight:             377.366
##########                DOCK_Rotatable_Bonds:                   8
##########                       Formal_Charge:         -0.00999984
##########                     HBond_Acceptors:                   8
##########                        HBond_Donors:                   1
##########                         Heavy_Atoms:                  27
##########                          Grid_Score:          -29.425573
##########                     Grid_vdw_energy:          -29.101509
##########                      Grid_es_energy:           -0.324065
##########           Internal_energy_repulsive:           13.937739

@<TRIPOS>MOLECULE
ZINC000459459628
 45 46 1 0 0
SMALL
USER_CHARGES


@<TRIPOS>ATOM
      1 C1         -6.5570   -0.0685   51.1800 C.3     1  ZINC000459459628   -0.1600
      2 C2         -6.3576    1.4059   51.5371 C.3     1  ZINC000459459628    0.1600
      3 H3         -5.6828    1.4852   52.3895 H       1  ZINC000459459628    0.1100
      4 C4         -7.7074    2.0309   51.8954 C.3     1  ZINC000459459628   -0.0900
      5 C5         -8.1294    1.5643   53.2648 C.ar    1  ZINC000459459628   -0.0500
      6 C6         -9.3608    0.9616   53.4404 C.ar    1  ZINC000459459628   -0.1200
      7 C7         -9.7493    0.5331   54.6962 C.ar    1  ZINC000459459628   -0.0900
      8 C8         -8.9066    0.7069   55.7774 C.ar    1  ZINC000459459628   -0.1600
      9 C9         -7.6724    1.3100   55.6026 C.ar    1  ZINC000459459628    0.1000
     10 F10        -6.8476    1.4805   56.6590 F       1  ZINC000459459628   -0.1400
     11 C11        -7.2823    1.7340   54.3438 C.ar    1  ZINC000459459628   -0.1500
     12 N12        -5.7812    2.1125   50.3905 N.am    1  ZINC000459459628   -0.6200
     13 C13        -6.6588    2.6897   49.3692 C.3     1  ZINC000459459628    0.0700
     14 C14        -4.4437    2.2314   50.2752 C.2     1  ZINC000459459628    0.7100
     15 O15        -3.7154    1.7536   51.1236 O.2     1  ZINC000459459628   -0.5700
     16 N16        -3.9134    2.8801   49.2195 N.am    1  ZINC000459459628   -0.6800
     17 C17        -2.5221    3.0039   49.0996 C.ar    1  ZINC000459459628    0.1500
     18 C18        -1.8302    2.2006   48.2120 C.ar    1  ZINC000459459628   -0.0400
     19 C19        -0.4434    2.3275   48.0951 C.ar    1  ZINC000459459628   -0.0300
     20 C20         0.2782    1.4986   47.1772 C.1     1  ZINC000459459628    0.2600
     21 N21         0.8507    0.8410   46.4489 N.1     1  ZINC000459459628   -0.4100
     22 C22         0.2375    3.2652   48.8756 C.ar    1  ZINC000459459628   -0.0500
     23 C23        -0.4582    4.0627   49.7592 C.ar    1  ZINC000459459628   -0.1700
     24 C24        -1.8357    3.9418   49.8719 C.ar    1  ZINC000459459628    0.1100
     25 O25        -2.5162    4.7301   50.7439 O.3     1  ZINC000459459628   -0.3200
     26 C26        -2.0380    4.7720   52.0899 C.3     1  ZINC000459459628    0.4100
     27 F27        -1.7193    6.0908   52.4308 F       1  ZINC000459459628   -0.1900
     28 F28        -3.0306    4.2942   52.9524 F       1  ZINC000459459628   -0.1900
     29 H29        -7.2318   -0.1478   50.3276 H       1  ZINC000459459628    0.0600
     30 H30        -5.5954   -0.5137   50.9247 H       1  ZINC000459459628    0.0600
     31 H31        -6.9858   -0.5942   52.0330 H       1  ZINC000459459628    0.0700
     32 H32        -7.6168    3.1171   51.8935 H       1  ZINC000459459628    0.0800
     33 H33        -8.4544    1.7273   51.1620 H       1  ZINC000459459628    0.0900
     34 H34       -10.0203    0.8258   52.5959 H       1  ZINC000459459628    0.1300
     35 H35       -10.7119    0.0627   54.8322 H       1  ZINC000459459628    0.1300
     36 H36        -9.2105    0.3726   56.7584 H       1  ZINC000459459628    0.1300
     37 H37        -6.3199    2.2042   54.2063 H       1  ZINC000459459628    0.1300
     38 H38        -6.9094    3.7146   49.6428 H       1  ZINC000459459628    0.0600
     39 H39        -6.1477    2.6852   48.4064 H       1  ZINC000459459628    0.0700
     40 H40        -7.5719    2.0988   49.2987 H       1  ZINC000459459628    0.0800
     41 H41        -4.4944    3.2613   48.5427 H       1  ZINC000459459628    0.4100
     42 H42        -2.3602    1.4767   47.6106 H       1  ZINC000459459628    0.1600
     43 H43         1.3091    3.3650   48.7870 H       1  ZINC000459459628    0.1400
     44 H44         0.0700    4.7865   50.3621 H       1  ZINC000459459628    0.1500
     45 H45        -1.1484    4.1484   52.1789 H       1  ZINC000459459628    0.1900
@<TRIPOS>BOND
     1     1     2    1
     2     1    29    1
     3     1    30    1
     4     1    31    1
     5     2     3    1
     6     2     4    1
     7     2    12    1
     8     4     5    1
     9     4    32    1
    10     4    33    1
    11     5    11   ar
    12     5     6   ar
    13     6     7   ar
    14     6    34    1
    15     7     8   ar
    16     7    35    1
    17     8     9   ar
    18     8    36    1
    19     9    10    1
    20     9    11   ar
    21    11    37    1
    22    12    13    1
    23    12    14   am
    24    13    38    1
    25    13    39    1
    26    13    40    1
    27    14    15    2
    28    14    16   am
    29    16    17    1
    30    16    41    1
    31    17    24   ar
    32    17    18   ar
    33    18    19   ar
    34    18    42    1
    35    19    20    1
    36    19    22   ar
    37    20    21    3
    38    22    23   ar
    39    22    43    1
    40    23    24   ar
    41    23    44    1
    42    24    25    1
    43    25    26    1
    44    26    27    1
    45    26    28    1
    46    26    45    1
@<TRIPOS>SUBSTRUCTURE
     1 ZINC000459459628        1 TEMP              0 ****  ****    0 ROOT


##########                                Name:    ZINC001039666729
##########                DOCK_Rotatable_Bonds:                   3
##########                         Heavy_Atoms:                  25
##########                    Molecular_Weight:             344.376
##########                DOCK_Rotatable_Bonds:                   3
##########                       Formal_Charge:          -0.0199998
##########                     HBond_Acceptors:                  10
##########                        HBond_Donors:                   2
##########                         Heavy_Atoms:                  25
##########                          Grid_Score:          -29.412870
##########                     Grid_vdw_energy:          -28.459953
##########                      Grid_es_energy:           -0.952918
##########           Internal_energy_repulsive:           40.768330

@<TRIPOS>MOLECULE
ZINC001039666729
 45 47 1 0 0
SMALL
USER_CHARGES


@<TRIPOS>ATOM
      1 C1        -10.5175   -1.4997   58.1530 C.3     1  ZINC001039666729   -0.1100
      2 C2        -11.9601   -1.5358   58.5877 C.ar    1  ZINC001039666729    0.2200
      3 C3        -12.4978   -0.4904   59.3214 C.ar    1  ZINC001039666729   -0.3000
      4 C4        -13.8290   -0.5633   59.7013 C.ar    1  ZINC001039666729    0.1900
      5 N5        -14.5419   -1.6220   59.3545 N.ar    1  ZINC001039666729   -0.5800
      6 C6        -13.9972   -2.6049   58.6523 C.ar    1  ZINC001039666729    0.6000
      7 N7        -14.7724   -3.6980   58.3060 N.pl3   1  ZINC001039666729   -0.5900
      8 C8        -15.9843   -4.1309   59.0665 C.3     1  ZINC001039666729    0.1200
      9 C9        -17.1521   -3.2418   58.6333 C.3     1  ZINC001039666729    0.0900
     10 N10       -17.3986   -3.4642   57.1868 N.am    1  ZINC001039666729   -0.7400
     11 C11       -16.8303   -2.5276   56.3642 C.2     1  ZINC001039666729    0.5200
     12 O12       -16.1859   -1.6083   56.8231 O.2     1  ZINC001039666729   -0.5200
     13 C13       -17.0237   -2.6655   54.8760 C.3     1  ZINC001039666729   -0.1500
     14 C14       -15.6621   -2.8300   54.1977 C.3     1  ZINC001039666729    0.1100
     15 N15       -14.9762   -4.0012   54.8023 N.am    1  ZINC001039666729   -0.6100
     16 C16       -15.1380   -5.2572   54.3412 C.2     1  ZINC001039666729    0.6100
     17 O17       -14.5537   -6.1804   54.8741 O.2     1  ZINC001039666729   -0.5200
     18 C18       -16.0261   -5.5122   53.1874 C.2     1  ZINC001039666729   -0.0400
     19 N19       -16.8026   -4.6382   52.5653 N.2     1  ZINC001039666729   -0.2500
     20 N20       -17.4188   -5.2444   51.6133 N.pl3   1  ZINC001039666729   -0.2300
     21 N21       -17.0919   -6.4863   51.5672 N.2     1  ZINC001039666729   -0.2800
     22 C22       -16.2198   -6.7351   52.5144 C.2     1  ZINC001039666729    0.0400
     23 C23       -14.0971   -3.6770   55.9556 C.3     1  ZINC001039666729    0.1100
     24 C24       -14.4941   -4.5728   57.1262 C.3     1  ZINC001039666729    0.1300
     25 N25       -12.7297   -2.5636   58.2690 N.ar    1  ZINC001039666729   -0.5700
     26 H26       -10.4437   -1.0162   57.1789 H       1  ZINC001039666729    0.0800
     27 H27        -9.9323   -0.9392   58.8820 H       1  ZINC001039666729    0.0800
     28 H28       -10.1333   -2.5174   58.0835 H       1  ZINC001039666729    0.0800
     29 H29       -11.8929    0.3625   59.5916 H       1  ZINC001039666729    0.1400
     30 H30       -14.2785    0.2345   60.2739 H       1  ZINC001039666729    0.1600
     31 H31       -16.2099   -5.1728   58.8394 H       1  ZINC001039666729    0.0800
     32 H32       -15.8095   -4.0152   60.1362 H       1  ZINC001039666729    0.0900
     33 H33       -18.0439   -3.5041   59.2024 H       1  ZINC001039666729    0.0800
     34 H34       -16.9005   -2.1954   58.8062 H       1  ZINC001039666729    0.1000
     35 H35       -17.9192   -4.2110   56.8515 H       1  ZINC001039666729    0.4100
     36 H36       -17.6405   -3.5402   54.6693 H       1  ZINC001039666729    0.0800
     37 H37       -17.5169   -1.7737   54.4894 H       1  ZINC001039666729    0.1100
     38 H38       -15.8017   -2.9972   53.1297 H       1  ZINC001039666729    0.1100
     39 H39       -15.0633   -1.9327   54.3540 H       1  ZINC001039666729    0.0900
     40 H40       -18.0483   -4.8199   51.0095 H       1  ZINC001039666729    0.4700
     41 H41       -15.7522   -7.6828   52.7373 H       1  ZINC001039666729    0.2100
     42 H42       -13.0565   -3.8590   55.6867 H       1  ZINC001039666729    0.0800
     43 H43       -14.2274   -2.6313   56.2340 H       1  ZINC001039666729    0.1200
     44 H44       -13.6773   -5.2546   57.3624 H       1  ZINC001039666729    0.0700
     45 H45       -15.3876   -5.1416   56.8688 H       1  ZINC001039666729    0.0900
@<TRIPOS>BOND
     1     1     2    1
     2     1    26    1
     3     1    27    1
     4     1    28    1
     5     2    25   ar
     6     2     3   ar
     7     3     4   ar
     8     3    29    1
     9     4     5   ar
    10     4    30    1
    11     5     6   ar
    12     6     7    1
    13     6    25   ar
    14     7    24    1
    15     7     8    1
    16     8     9    1
    17     8    31    1
    18     8    32    1
    19     9    10    1
    20     9    33    1
    21     9    34    1
    22    10    11   am
    23    10    35    1
    24    11    12    2
    25    11    13    1
    26    13    14    1
    27    13    36    1
    28    13    37    1
    29    14    15    1
    30    14    38    1
    31    14    39    1
    32    15    16   am
    33    15    23    1
    34    16    17    2
    35    16    18    1
    36    18    22    1
    37    18    19    2
    38    19    20    1
    39    20    21    1
    40    20    40    1
    41    21    22    2
    42    22    41    1
    43    23    24    1
    44    23    42    1
    45    23    43    1
    46    24    44    1
    47    24    45    1
@<TRIPOS>SUBSTRUCTURE
     1 ZINC001039666729        1 TEMP              0 ****  ****    0 ROOT


##########                                Name:    ZINC000652498551
##########                DOCK_Rotatable_Bonds:                   6
##########                         Heavy_Atoms:                  23
##########                    Molecular_Weight:             388.277
##########                DOCK_Rotatable_Bonds:                   6
##########                       Formal_Charge:          -0.0400001
##########                     HBond_Acceptors:                   5
##########                        HBond_Donors:                   1
##########                         Heavy_Atoms:                  23
##########                          Grid_Score:          -29.407688
##########                     Grid_vdw_energy:          -27.998636
##########                      Grid_es_energy:           -1.409051
##########           Internal_energy_repulsive:           20.114040

@<TRIPOS>MOLECULE
ZINC000652498551
 46 47 1 0 0
SMALL
USER_CHARGES


@<TRIPOS>ATOM
      1 C1         -7.3004    3.9645   54.9075 C.3     1  ZINC000652498551   -0.1300
      2 C2         -8.0806    2.6615   55.0937 C.3     1  ZINC000652498551   -0.1300
      3 C3         -7.3221    1.7460   56.0568 C.3     1  ZINC000652498551   -0.1300
      4 C4         -9.4429    2.9684   55.6602 C.2     1  ZINC000652498551    0.5000
      5 O5        -10.3454    3.3214   54.9205 O.co2   1  ZINC000652498551   -0.7000
      6 O6         -9.6425    2.8636   56.8585 O.co2   1  ZINC000652498551   -0.6700
      7 C7         -8.2362    1.9626   53.7416 C.3     1  ZINC000652498551   -0.0600
      8 H8         -8.6635    2.6582   53.0194 H       1  ZINC000652498551    0.0700
      9 C9         -9.1617    0.7522   53.8952 C.3     1  ZINC000652498551   -0.1500
     10 C10        -9.2483    0.0151   52.5555 C.3     1  ZINC000652498551   -0.1400
     11 C11        -7.8409   -0.3843   52.1074 C.3     1  ZINC000652498551   -0.0100
     12 N12        -7.0129    0.8179   51.9534 N.4     1  ZINC000652498551   -0.3800
     13 H13        -7.4523    1.4459   51.2972 H       1  ZINC000652498551    0.4200
     14 C14        -5.6866    0.4362   51.4504 C.3     1  ZINC000652498551    0.0000
     15 C15        -5.7536    0.2378   49.9348 C.3     1  ZINC000652498551    0.0200
     16 O16        -5.9213    1.5048   49.2955 O.3     1  ZINC000652498551   -0.3100
     17 C17        -4.9910    2.4587   49.5630 C.ar    1  ZINC000652498551    0.1600
     18 C18        -5.3896    3.7188   49.9825 C.ar    1  ZINC000652498551   -0.2300
     19 C19        -4.4405    4.6887   50.2543 C.ar    1  ZINC000652498551    0.1500
     20 F20        -4.8277    5.9167   50.6631 F       1  ZINC000652498551   -0.1200
     21 C21        -3.0942    4.4006   50.1076 C.ar    1  ZINC000652498551   -0.1600
     22 C22        -2.6958    3.1438   49.6885 C.ar    1  ZINC000652498551   -0.0300
     23 Br23       -0.8563    2.7535   49.4893 Br      1  ZINC000652498551   -0.0100
     24 C24        -3.6409    2.1710   49.4218 C.ar    1  ZINC000652498551   -0.1300
     25 C25        -6.8660    1.4921   53.2490 C.3     1  ZINC000652498551   -0.0200
     26 H26        -6.3150    3.7425   54.4978 H       1  ZINC000652498551    0.0400
     27 H27        -7.8407    4.6166   54.2215 H       1  ZINC000652498551    0.0500
     28 H28        -7.1896    4.4624   55.8708 H       1  ZINC000652498551    0.0600
     29 H29        -7.2113    2.2440   57.0200 H       1  ZINC000652498551    0.0700
     30 H30        -7.8780    0.8179   56.1895 H       1  ZINC000652498551    0.0400
     31 H31        -6.3367    1.5241   55.6470 H       1  ZINC000652498551    0.0500
     32 H32        -8.7613    0.0813   54.6551 H       1  ZINC000652498551    0.1300
     33 H33       -10.1554    1.0885   54.1911 H       1  ZINC000652498551    0.0800
     34 H34        -9.8610   -0.8789   52.6711 H       1  ZINC000652498551    0.1000
     35 H35        -9.6963    0.6700   51.8081 H       1  ZINC000652498551    0.0700
     36 H36        -7.3940   -1.0392   52.8554 H       1  ZINC000652498551    0.1300
     37 H37        -7.8989   -0.9095   51.1541 H       1  ZINC000652498551    0.1100
     38 H38        -4.9695    1.2236   51.6823 H       1  ZINC000652498551    0.1400
     39 H39        -5.3717   -0.4932   51.9248 H       1  ZINC000652498551    0.1500
     40 H40        -4.8298   -0.2249   49.5876 H       1  ZINC000652498551    0.1100
     41 H41        -6.5975   -0.4072   49.6897 H       1  ZINC000652498551    0.0900
     42 H42        -6.4398    3.9433   50.0968 H       1  ZINC000652498551    0.1500
     43 H43        -2.3543    5.1579   50.3203 H       1  ZINC000652498551    0.1500
     44 H44        -3.3290    1.1901   49.0951 H       1  ZINC000652498551    0.1500
     45 H45        -6.2045    2.3512   53.1381 H       1  ZINC000652498551    0.1100
     46 H46        -6.4400    0.7976   53.9731 H       1  ZINC000652498551    0.1700
@<TRIPOS>BOND
     1     1     2    1
     2     1    26    1
     3     1    27    1
     4     1    28    1
     5     2     3    1
     6     2     4    1
     7     2     7    1
     8     3    29    1
     9     3    30    1
    10     3    31    1
    11     4     5   ar
    12     4     6   ar
    13     7     8    1
    14     7    25    1
    15     7     9    1
    16     9    10    1
    17     9    32    1
    18     9    33    1
    19    10    11    1
    20    10    34    1
    21    10    35    1
    22    11    12    1
    23    11    36    1
    24    11    37    1
    25    12    13    1
    26    12    14    1
    27    12    25    1
    28    14    15    1
    29    14    38    1
    30    14    39    1
    31    15    16    1
    32    15    40    1
    33    15    41    1
    34    16    17    1
    35    17    24   ar
    36    17    18   ar
    37    18    19   ar
    38    18    42    1
    39    19    20    1
    40    19    21   ar
    41    21    22   ar
    42    21    43    1
    43    22    23    1
    44    22    24   ar
    45    24    44    1
    46    25    45    1
    47    25    46    1
@<TRIPOS>SUBSTRUCTURE
     1 ZINC000652498551        1 TEMP              0 ****  ****    0 ROOT


##########                                Name:    ZINC000944933040
##########                DOCK_Rotatable_Bonds:                   4
##########                         Heavy_Atoms:                  26
##########                    Molecular_Weight:             354.449
##########                DOCK_Rotatable_Bonds:                   4
##########                       Formal_Charge:           0.0100002
##########                     HBond_Acceptors:                   5
##########                        HBond_Donors:                   0
##########                         Heavy_Atoms:                  26
##########                          Grid_Score:          -29.382956
##########                     Grid_vdw_energy:          -28.369406
##########                      Grid_es_energy:           -1.013550
##########           Internal_energy_repulsive:            9.241829

@<TRIPOS>MOLECULE
ZINC000944933040
 52 57 1 0 0
SMALL
USER_CHARGES


@<TRIPOS>ATOM
      1 O1         -8.3554   -0.9741   53.0279 O.2     1  ZINC000944933040   -0.5200
      2 C2         -8.5607    0.0896   52.4753 C.2     1  ZINC000944933040    0.6400
      3 C3         -9.9037    0.5176   52.2222 C.1     1  ZINC000944933040   -0.2200
      4 C4        -11.0047    0.8683   52.0147 C.1     1  ZINC000944933040   -0.0400
      5 C5        -12.3851    1.3082   51.7545 C.3     1  ZINC000944933040   -0.0700
      6 C6        -13.1715    0.5645   50.6731 C.3     1  ZINC000944933040   -0.1600
      7 C7        -13.5161    0.3563   52.1491 C.3     1  ZINC000944933040   -0.1600
      8 N8         -7.5245    0.8682   52.1059 N.am    1  ZINC000944933040   -0.6000
      9 C9         -7.7609    2.1605   51.4489 C.3     1  ZINC000944933040    0.1100
     10 C10        -7.0050    2.1809   50.1149 C.3     1  ZINC000944933040   -0.1200
     11 C11        -5.5449    1.8093   50.3619 C.3     1  ZINC000944933040   -0.0900
     12 C12        -4.6432    2.0112   49.1363 C.3     1  ZINC000944933040    0.1200
     13 N13        -3.6592    2.5742   50.0825 N.am    1  ZINC000944933040   -0.6400
     14 C14        -2.3186    2.7128   50.0790 C.2     1  ZINC000944933040    0.5500
     15 O15        -1.6709    2.3214   49.1313 O.2     1  ZINC000944933040   -0.5300
     16 C16        -1.6242    3.3541   51.2528 C.3     1  ZINC000944933040   -0.1300
     17 H17        -1.7778    2.7671   52.1583 H       1  ZINC000944933040    0.1100
     18 C18        -2.1156    4.8105   51.4527 C.3     1  ZINC000944933040   -0.1300
     19 C19        -0.8149    5.6442   51.2502 C.3     1  ZINC000944933040    0.0900
     20 H20        -0.9668    6.6887   50.9780 H       1  ZINC000944933040    0.1300
     21 O21        -0.1030    4.8279   50.2631 O.3     1  ZINC000944933040   -0.3600
     22 C22        -0.1039    3.5350   50.9633 C.3     1  ZINC000944933040    0.1200
     23 H23         0.3852    2.7138   50.4395 H       1  ZINC000944933040    0.1400
     24 C24         0.5327    3.9292   52.3299 C.3     1  ZINC000944933040   -0.2000
     25 H25         0.5391    3.1871   53.1282 H       1  ZINC000944933040    0.1200
     26 C26         1.5618    5.0614   52.3223 C.3     1  ZINC000944933040   -0.1300
     27 C27         0.0320    5.4054   52.5361 C.3     1  ZINC000944933040   -0.2000
     28 H28        -0.3138    5.7973   53.4927 H       1  ZINC000944933040    0.1300
     29 C29        -4.7326    2.9253   51.0337 C.3     1  ZINC000944933040    0.1100
     30 C30        -5.3759    0.4458   51.0276 C.3     1  ZINC000944933040   -0.1100
     31 C31        -6.1429    0.4394   52.3605 C.3     1  ZINC000944933040    0.1100
     32 H32       -12.5661    2.3774   51.8633 H       1  ZINC000944933040    0.1400
     33 H33       -13.8701    1.1447   50.0701 H       1  ZINC000944933040    0.1100
     34 H34       -12.6667   -0.2504   50.1543 H       1  ZINC000944933040    0.1000
     35 H35       -13.2380   -0.5956   52.6015 H       1  ZINC000944933040    0.1000
     36 H36       -14.4414    0.7995   52.5173 H       1  ZINC000944933040    0.1100
     37 H37        -8.8279    2.2877   51.2662 H       1  ZINC000944933040    0.0900
     38 H38        -7.3984    2.9665   52.0867 H       1  ZINC000944933040    0.0800
     39 H39        -7.4536    1.4606   49.4307 H       1  ZINC000944933040    0.0800
     40 H40        -7.0585    3.1794   49.6810 H       1  ZINC000944933040    0.0900
     41 H41        -4.3213    1.0804   48.6693 H       1  ZINC000944933040    0.0800
     42 H42        -5.0299    2.7367   48.4207 H       1  ZINC000944933040    0.0900
     43 H43        -2.8626    5.0724   50.7034 H       1  ZINC000944933040    0.0800
     44 H44        -2.5109    4.9500   52.4588 H       1  ZINC000944933040    0.0900
     45 H45         2.2106    5.1555   53.1932 H       1  ZINC000944933040    0.1000
     46 H46         2.0202    5.3165   51.3668 H       1  ZINC000944933040    0.1000
     47 H47        -5.1460    3.9224   50.8818 H       1  ZINC000944933040    0.0900
     48 H48        -4.4821    2.7211   52.0746 H       1  ZINC000944933040    0.0800
     49 H49        -5.7717   -0.3308   50.3731 H       1  ZINC000944933040    0.0800
     50 H50        -4.3185    0.2610   51.2162 H       1  ZINC000944933040    0.0800
     51 H51        -5.6649    1.1249   53.0604 H       1  ZINC000944933040    0.0700
     52 H52        -6.1448   -0.5682   52.7762 H       1  ZINC000944933040    0.1000
@<TRIPOS>BOND
     1     1     2    2
     2     2     3    1
     3     2     8   am
     4     3     4    3
     5     4     5    1
     6     5     7    1
     7     5     6    1
     8     5    32    1
     9     6     7    1
    10     6    33    1
    11     6    34    1
    12     7    35    1
    13     7    36    1
    14     8    31    1
    15     8     9    1
    16     9    10    1
    17     9    37    1
    18     9    38    1
    19    10    11    1
    20    10    39    1
    21    10    40    1
    22    11    29    1
    23    11    12    1
    24    11    30    1
    25    12    13    1
    26    12    41    1
    27    12    42    1
    28    13    14   am
    29    13    29    1
    30    14    15    2
    31    14    16    1
    32    16    17    1
    33    16    22    1
    34    16    18    1
    35    18    19    1
    36    18    43    1
    37    18    44    1
    38    19    20    1
    39    19    27    1
    40    19    21    1
    41    21    22    1
    42    22    23    1
    43    22    24    1
    44    24    25    1
    45    24    27    1
    46    24    26    1
    47    26    27    1
    48    26    45    1
    49    26    46    1
    50    27    28    1
    51    29    47    1
    52    29    48    1
    53    30    31    1
    54    30    49    1
    55    30    50    1
    56    31    51    1
    57    31    52    1
@<TRIPOS>SUBSTRUCTURE
     1 ZINC000944933040        1 TEMP              0 ****  ****    0 ROOT


##########                                Name:    ZINC000179211660
##########                DOCK_Rotatable_Bonds:                   6
##########                         Heavy_Atoms:                  23
##########                    Molecular_Weight:             385.208
##########                DOCK_Rotatable_Bonds:                   6
##########                       Formal_Charge:        -1.78814e-07
##########                     HBond_Acceptors:                   6
##########                        HBond_Donors:                   1
##########                         Heavy_Atoms:                  23
##########                          Grid_Score:          -29.343786
##########                     Grid_vdw_energy:          -29.629929
##########                      Grid_es_energy:            0.286143
##########           Internal_energy_repulsive:           13.405967

@<TRIPOS>MOLECULE
ZINC000179211660
 38 39 1 0 0
SMALL
USER_CHARGES


@<TRIPOS>ATOM
      1 C1          2.4737    0.7544   45.9532 C.3     1  ZINC000179211660    0.0300
      2 O2          1.5667    1.4867   46.7798 O.3     1  ZINC000179211660   -0.2700
      3 C3          1.5255    1.1532   48.0966 C.ar    1  ZINC000179211660    0.1500
      4 C4          2.3315    0.1333   48.5806 C.ar    1  ZINC000179211660   -0.2200
      5 C5          2.2881   -0.2035   49.9199 C.ar    1  ZINC000179211660   -0.0700
      6 C6          1.4418    0.4746   50.7772 C.ar    1  ZINC000179211660   -0.1700
      7 C7          0.6368    1.4914   50.2971 C.ar    1  ZINC000179211660   -0.0700
      8 C8          0.6810    1.8361   48.9603 C.ar    1  ZINC000179211660   -0.1500
      9 C9         -0.1960    2.9446   48.4378 C.3     1  ZINC000179211660    0.1800
     10 N10        -1.4784    2.3875   48.0002 N.am    1  ZINC000179211660   -0.6200
     11 C11        -1.6364    1.9043   46.6262 C.3     1  ZINC000179211660    0.0700
     12 C12        -2.5128    2.3197   48.8615 C.2     1  ZINC000179211660    0.7000
     13 O13        -2.3821    2.7222   50.0014 O.2     1  ZINC000179211660   -0.5300
     14 N14        -3.6920    1.8058   48.4594 N.am    1  ZINC000179211660   -0.6800
     15 C15        -4.7673    1.7353   49.3547 C.ar    1  ZINC000179211660    0.1900
     16 C16        -5.4192    2.8944   49.7502 C.ar    1  ZINC000179211660   -0.1400
     17 C17        -6.4813    2.8220   50.6343 C.ar    1  ZINC000179211660    0.1500
     18 F18        -7.1167    3.9503   51.0198 F       1  ZINC000179211660   -0.1100
     19 C19        -6.8939    1.5937   51.1239 C.ar    1  ZINC000179211660   -0.1300
     20 Br20       -8.3461    1.4983   52.3314 Br      1  ZINC000179211660   -0.0100
     21 C21        -6.2455    0.4363   50.7306 C.ar    1  ZINC000179211660   -0.0700
     22 C22        -5.1867    0.5029   49.8441 C.ar    1  ZINC000179211660    0.0600
     23 F23        -4.5541   -0.6275   49.4604 F       1  ZINC000179211660   -0.1300
     24 H24         2.4070    1.1195   44.9283 H       1  ZINC000179211660    0.1000
     25 H25         3.4906    0.8892   46.3215 H       1  ZINC000179211660    0.0500
     26 H26         2.2151   -0.3043   45.9793 H       1  ZINC000179211660    0.0500
     27 H27         2.9923   -0.3972   47.9110 H       1  ZINC000179211660    0.1300
     28 H28         2.9155   -0.9975   50.2971 H       1  ZINC000179211660    0.1200
     29 H29         1.4089    0.2096   51.8237 H       1  ZINC000179211660    0.1200
     30 H30        -0.0238    2.0194   50.9689 H       1  ZINC000179211660    0.1300
     31 H31        -0.3680    3.6750   49.2284 H       1  ZINC000179211660    0.0900
     32 H32         0.2956    3.4304   47.5950 H       1  ZINC000179211660    0.1000
     33 H33        -1.3693    0.8485   46.5795 H       1  ZINC000179211660    0.0600
     34 H34        -2.6728    2.0311   46.3134 H       1  ZINC000179211660    0.0600
     35 H35        -0.9845    2.4736   45.9636 H       1  ZINC000179211660    0.0800
     36 H36        -3.7962    1.4847   47.5501 H       1  ZINC000179211660    0.4100
     37 H37        -5.0980    3.8523   49.3687 H       1  ZINC000179211660    0.1800
     38 H38        -6.5691   -0.5201   51.1137 H       1  ZINC000179211660    0.1600
@<TRIPOS>BOND
     1     1     2    1
     2     1    24    1
     3     1    25    1
     4     1    26    1
     5     2     3    1
     6     3     8   ar
     7     3     4   ar
     8     4     5   ar
     9     4    27    1
    10     5     6   ar
    11     5    28    1
    12     6     7   ar
    13     6    29    1
    14     7     8   ar
    15     7    30    1
    16     8     9    1
    17     9    10    1
    18     9    31    1
    19     9    32    1
    20    10    11    1
    21    10    12   am
    22    11    33    1
    23    11    34    1
    24    11    35    1
    25    12    13    2
    26    12    14   am
    27    14    15    1
    28    14    36    1
    29    15    22   ar
    30    15    16   ar
    31    16    17   ar
    32    16    37    1
    33    17    18    1
    34    17    19   ar
    35    19    20    1
    36    19    21   ar
    37    21    22   ar
    38    21    38    1
    39    22    23    1
@<TRIPOS>SUBSTRUCTURE
     1 ZINC000179211660        1 TEMP              0 ****  ****    0 ROOT


##########                                Name:    ZINC001312809190
##########                DOCK_Rotatable_Bonds:                   6
##########                         Heavy_Atoms:                  29
##########                    Molecular_Weight:             395.501
##########                DOCK_Rotatable_Bonds:                   6
##########                       Formal_Charge:           0.0199995
##########                     HBond_Acceptors:                   6
##########                        HBond_Donors:                   1
##########                         Heavy_Atoms:                  29
##########                          Grid_Score:          -29.343378
##########                     Grid_vdw_energy:          -29.464493
##########                      Grid_es_energy:            0.121116
##########           Internal_energy_repulsive:           30.992891

@<TRIPOS>MOLECULE
ZINC001312809190
 58 61 1 0 0
SMALL
USER_CHARGES


@<TRIPOS>ATOM
      1 C1        -13.5525    0.5784   62.5467 C.3     1  ZINC001312809190    0.0300
      2 O2        -13.8641   -0.4196   61.5726 O.3     1  ZINC001312809190   -0.3200
      3 C3        -12.8378   -0.8775   60.8084 C.ar    1  ZINC001312809190    0.1300
      4 C4        -13.0789   -1.8022   59.8031 C.ar    1  ZINC001312809190   -0.2100
      5 C5        -12.0339   -2.2658   59.0272 C.ar    1  ZINC001312809190   -0.0800
      6 C6        -10.7487   -1.8092   59.2526 C.ar    1  ZINC001312809190   -0.1300
      7 C7        -10.5056   -0.8875   60.2546 C.ar    1  ZINC001312809190   -0.0500
      8 C8         -9.1033   -0.3922   60.4978 C.3     1  ZINC001312809190    0.1200
      9 H9         -8.4057   -1.2266   60.4263 H       1  ZINC001312809190    0.0500
     10 C10        -9.0162    0.2274   61.8940 C.3     1  ZINC001312809190   -0.1400
     11 N11        -8.7600    0.6206   59.4904 N.3     1  ZINC001312809190   -0.5300
     12 C12        -9.9698    1.1816   58.8746 C.3     1  ZINC001312809190    0.0300
     13 C13        -9.5807    2.3539   57.9676 C.3     1  ZINC001312809190    0.1400
     14 N14        -8.5573    1.8904   57.0183 N.am    1  ZINC001312809190   -0.6300
     15 C15        -8.6971    2.0987   55.6941 C.2     1  ZINC001312809190    0.7100
     16 O16        -9.6792    2.6766   55.2700 O.2     1  ZINC001312809190   -0.5800
     17 N17        -7.7482    1.6664   54.8401 N.am    1  ZINC001312809190   -0.7300
     18 C18        -7.9002    1.8928   53.4008 C.3     1  ZINC001312809190    0.1800
     19 H19        -8.5784    2.7242   53.2086 H       1  ZINC001312809190    0.1200
     20 C20        -6.5539    2.1286   52.7440 C.ar    1  ZINC001312809190   -0.1900
     21 C21        -5.4839    2.9239   53.0884 C.ar    1  ZINC001312809190   -0.0500
     22 C22        -4.3513    2.9415   52.2934 C.ar    1  ZINC001312809190   -0.1500
     23 C23        -4.2995    2.1591   51.1549 C.ar    1  ZINC001312809190   -0.0800
     24 C24        -5.3720    1.3642   50.8060 C.ar    1  ZINC001312809190   -0.1400
     25 C25        -6.5165    1.3433   51.5987 C.ar    1  ZINC001312809190    0.1100
     26 O26        -7.6804    0.6564   51.4339 O.3     1  ZINC001312809190   -0.2900
     27 C27        -8.3844    0.6082   52.6872 C.3     1  ZINC001312809190    0.0800
     28 H28        -8.1019   -0.2783   53.2550 H       1  ZINC001312809190    0.0900
     29 C29        -9.8970    0.6451   52.4610 C.3     1  ZINC001312809190   -0.1500
     30 C30        -7.3770    1.1942   57.5526 C.3     1  ZINC001312809190    0.1200
     31 C31        -7.8529    0.0676   58.4759 C.3     1  ZINC001312809190    0.0400
     32 C32       -11.5479   -0.4164   61.0288 C.ar    1  ZINC001312809190   -0.1500
     33 H33       -14.4584    0.8551   63.0860 H       1  ZINC001312809190    0.1000
     34 H34       -12.8178    0.1841   63.2487 H       1  ZINC001312809190    0.0600
     35 H35       -13.1437    1.4574   62.0483 H       1  ZINC001312809190    0.0600
     36 H36       -14.0827   -2.1599   59.6271 H       1  ZINC001312809190    0.1300
     37 H37       -12.2211   -2.9858   58.2444 H       1  ZINC001312809190    0.1300
     38 H38        -9.9330   -2.1729   58.6453 H       1  ZINC001312809190    0.1300
     39 H39        -9.7138    1.0619   61.9654 H       1  ZINC001312809190    0.0700
     40 H40        -9.2709   -0.5240   62.6414 H       1  ZINC001312809190    0.0600
     41 H41        -8.0018    0.5857   62.0699 H       1  ZINC001312809190    0.0600
     42 H42       -10.4665    0.4129   58.2824 H       1  ZINC001312809190    0.0400
     43 H43       -10.6452    1.5336   59.6544 H       1  ZINC001312809190    0.1000
     44 H44       -10.4575    2.7003   57.4205 H       1  ZINC001312809190    0.1000
     45 H45        -9.1782    3.1667   58.5722 H       1  ZINC001312809190    0.0700
     46 H46        -6.9647    1.2055   55.1785 H       1  ZINC001312809190    0.4000
     47 H47        -5.5286    3.5340   53.9785 H       1  ZINC001312809190    0.1200
     48 H48        -3.5108    3.5646   52.5613 H       1  ZINC001312809190    0.1300
     49 H49        -3.4152    2.1703   50.5351 H       1  ZINC001312809190    0.1300
     50 H50        -5.3235    0.7562   49.9147 H       1  ZINC001312809190    0.1300
     51 H51       -10.1987   -0.2256   51.8787 H       1  ZINC001312809190    0.0800
     52 H52       -10.4088    0.6337   53.4233 H       1  ZINC001312809190    0.0800
     53 H53       -10.1615    1.5535   51.9195 H       1  ZINC001312809190    0.0700
     54 H54        -6.7969    0.7739   56.7311 H       1  ZINC001312809190    0.0800
     55 H55        -6.7627    1.8955   58.1173 H       1  ZINC001312809190    0.0800
     56 H56        -6.9929   -0.3883   58.9665 H       1  ZINC001312809190    0.0900
     57 H57        -8.3791   -0.6855   57.8894 H       1  ZINC001312809190    0.0400
     58 H58       -11.3576    0.3036   61.8110 H       1  ZINC001312809190    0.1300
@<TRIPOS>BOND
     1     1     2    1
     2     1    33    1
     3     1    34    1
     4     1    35    1
     5     2     3    1
     6     3    32   ar
     7     3     4   ar
     8     4     5   ar
     9     4    36    1
    10     5     6   ar
    11     5    37    1
    12     6     7   ar
    13     6    38    1
    14     7     8    1
    15     7    32   ar
    16     8     9    1
    17     8    10    1
    18     8    11    1
    19    10    39    1
    20    10    40    1
    21    10    41    1
    22    11    31    1
    23    11    12    1
    24    12    13    1
    25    12    42    1
    26    12    43    1
    27    13    14    1
    28    13    44    1
    29    13    45    1
    30    14    15   am
    31    14    30    1
    32    15    16    2
    33    15    17   am
    34    17    18    1
    35    17    46    1
    36    18    19    1
    37    18    27    1
    38    18    20    1
    39    20    25   ar
    40    20    21   ar
    41    21    22   ar
    42    21    47    1
    43    22    23   ar
    44    22    48    1
    45    23    24   ar
    46    23    49    1
    47    24    25   ar
    48    24    50    1
    49    25    26    1
    50    26    27    1
    51    27    28    1
    52    27    29    1
    53    29    51    1
    54    29    52    1
    55    29    53    1
    56    30    31    1
    57    30    54    1
    58    30    55    1
    59    31    56    1
    60    31    57    1
    61    32    58    1
@<TRIPOS>SUBSTRUCTURE
     1 ZINC001312809190        1 TEMP              0 ****  ****    0 ROOT


##########                                Name:    ZINC000573150059
##########                DOCK_Rotatable_Bonds:                   7
##########                         Heavy_Atoms:                  23
##########                    Molecular_Weight:             378.269
##########                DOCK_Rotatable_Bonds:                   7
##########                       Formal_Charge:        -2.98023e-07
##########                     HBond_Acceptors:                   5
##########                        HBond_Donors:                   2
##########                         Heavy_Atoms:                  23
##########                          Grid_Score:          -29.333488
##########                     Grid_vdw_energy:          -29.282145
##########                      Grid_es_energy:           -0.051344
##########           Internal_energy_repulsive:            9.464552

@<TRIPOS>MOLECULE
ZINC000573150059
 43 44 1 0 0
SMALL
USER_CHARGES


@<TRIPOS>ATOM
      1 C1         -2.3354    1.9887   48.1651 C.3     1  ZINC000573150059    0.0300
      2 O2         -3.5598    1.8398   48.8866 O.3     1  ZINC000573150059   -0.3600
      3 C3         -3.5787    2.5159   50.1453 C.3     1  ZINC000573150059    0.0700
      4 H4         -2.7555    2.1569   50.7630 H       1  ZINC000573150059    0.0900
      5 C5         -3.4271    4.0212   49.9181 C.3     1  ZINC000573150059   -0.1700
      6 C6         -4.8863    2.2424   50.8429 C.2     1  ZINC000573150059    0.5100
      7 O7         -5.7414    3.1015   50.8870 O.2     1  ZINC000573150059   -0.4900
      8 N8         -5.1056    1.0433   51.4177 N.am    1  ZINC000573150059   -0.6700
      9 C9         -6.3196    0.7894   52.0653 C.ar    1  ZINC000573150059    0.1900
     10 C10        -7.2081   -0.1392   51.5378 C.ar    1  ZINC000573150059   -0.2000
     11 C11        -8.4073   -0.3907   52.1765 C.ar    1  ZINC000573150059   -0.0500
     12 C12        -8.7267    0.2794   53.3414 C.ar    1  ZINC000573150059   -0.2200
     13 C13        -7.8420    1.2093   53.8747 C.ar    1  ZINC000573150059    0.2400
     14 N14        -8.1654    1.8863   55.0527 N.pl3   1  ZINC000573150059   -0.7300
     15 C15        -7.4890    1.5406   56.3054 C.3     1  ZINC000573150059    0.2000
     16 H16        -6.5952    0.9566   56.0865 H       1  ZINC000573150059    0.1000
     17 C17        -7.0933    2.8221   57.0418 C.3     1  ZINC000573150059   -0.1700
     18 C18        -8.4189    0.7305   57.1715 C.ar    1  ZINC000573150059    0.1400
     19 C19        -7.9393    0.1473   58.3289 C.ar    1  ZINC000573150059   -0.1600
     20 C20        -8.8028   -0.5957   59.1193 C.ar    1  ZINC000573150059   -0.0400
     21 C21       -10.1229   -0.7250   58.7134 C.ar    1  ZINC000573150059   -0.1500
     22 Br22      -11.3496   -1.7251   59.7483 Br      1  ZINC000573150059   -0.0300
     23 C23       -10.5305   -0.1125   57.5421 C.ar    1  ZINC000573150059    0.1400
     24 N24        -9.6819    0.5908   56.8185 N.ar    1  ZINC000573150059   -0.4700
     25 C25        -6.6349    1.4606   53.2380 C.ar    1  ZINC000573150059   -0.1900
     26 H26        -2.1576    3.0454   47.9654 H       1  ZINC000573150059    0.0500
     27 H27        -1.5133    1.5877   48.7580 H       1  ZINC000573150059    0.0400
     28 H28        -2.4012    1.4467   47.2218 H       1  ZINC000573150059    0.0900
     29 H29        -4.2503    4.3802   49.3004 H       1  ZINC000573150059    0.0700
     30 H30        -3.4415    4.5370   50.8782 H       1  ZINC000573150059    0.0700
     31 H31        -2.4813    4.2191   49.4137 H       1  ZINC000573150059    0.0700
     32 H32        -4.4218    0.3562   51.3823 H       1  ZINC000573150059    0.4100
     33 H33        -6.9613   -0.6649   50.6271 H       1  ZINC000573150059    0.1200
     34 H34        -9.0965   -1.1127   51.7639 H       1  ZINC000573150059    0.1300
     35 H35        -9.6649    0.0808   53.8381 H       1  ZINC000573150059    0.1200
     36 H36        -8.8378    2.5853   55.0415 H       1  ZINC000573150059    0.4100
     37 H37        -7.9871    3.4062   57.2607 H       1  ZINC000573150059    0.0600
     38 H38        -6.5901    2.5649   57.9738 H       1  ZINC000573150059    0.0700
     39 H39        -6.4207    3.4081   56.4154 H       1  ZINC000573150059    0.0700
     40 H40        -6.9048    0.2687   58.6141 H       1  ZINC000573150059    0.1500
     41 H41        -8.4557   -1.0631   60.0289 H       1  ZINC000573150059    0.1500
     42 H42       -11.5565   -0.2082   57.2186 H       1  ZINC000573150059    0.1700
     43 H43        -5.9455    2.1824   53.6505 H       1  ZINC000573150059    0.1400
@<TRIPOS>BOND
     1     1     2    1
     2     1    26    1
     3     1    27    1
     4     1    28    1
     5     2     3    1
     6     3     4    1
     7     3     5    1
     8     3     6    1
     9     5    29    1
    10     5    30    1
    11     5    31    1
    12     6     7    2
    13     6     8   am
    14     8     9    1
    15     8    32    1
    16     9    25   ar
    17     9    10   ar
    18    10    11   ar
    19    10    33    1
    20    11    12   ar
    21    11    34    1
    22    12    13   ar
    23    12    35    1
    24    13    14    1
    25    13    25   ar
    26    14    15    1
    27    14    36    1
    28    15    16    1
    29    15    17    1
    30    15    18    1
    31    17    37    1
    32    17    38    1
    33    17    39    1
    34    18    24   ar
    35    18    19   ar
    36    19    20   ar
    37    19    40    1
    38    20    21   ar
    39    20    41    1
    40    21    22    1
    41    21    23   ar
    42    23    24   ar
    43    23    42    1
    44    25    43    1
@<TRIPOS>SUBSTRUCTURE
     1 ZINC000573150059        1 TEMP              0 ****  ****    0 ROOT


##########                                Name:    ZINC001011676549
##########                DOCK_Rotatable_Bonds:                   6
##########                         Heavy_Atoms:                  24
##########                    Molecular_Weight:             330.387
##########                DOCK_Rotatable_Bonds:                   6
##########                       Formal_Charge:        -1.49012e-07
##########                     HBond_Acceptors:                   7
##########                        HBond_Donors:                   1
##########                         Heavy_Atoms:                  24
##########                          Grid_Score:          -29.327799
##########                     Grid_vdw_energy:          -28.731146
##########                      Grid_es_energy:           -0.596652
##########           Internal_energy_repulsive:           11.872643

@<TRIPOS>MOLECULE
ZINC001011676549
 46 48 1 0 0
SMALL
USER_CHARGES


@<TRIPOS>ATOM
      1 C1         -2.8434    1.8740   48.4150 C.3     1  ZINC001011676549   -0.1700
      2 C2         -2.3837    3.1111   49.1890 C.3     1  ZINC001011676549    0.1300
      3 H3         -2.2485    3.9479   48.5037 H       1  ZINC001011676549    0.0900
      4 C4         -3.4292    3.4765   50.2637 C.3     1  ZINC001011676549    0.1400
      5 H5         -3.5021    4.5579   50.3790 H       1  ZINC001011676549    0.1100
      6 N6         -4.7359    2.9033   49.9316 N.am    1  ZINC001011676549   -0.7200
      7 C7         -5.8606    3.4603   50.4229 C.2     1  ZINC001011676549    0.5200
      8 O8         -5.7907    4.4351   51.1411 O.2     1  ZINC001011676549   -0.5300
      9 C9         -7.2048    2.8718   50.0798 C.3     1  ZINC001011676549   -0.0900
     10 C10        -7.4825    1.6953   50.9798 C.ar    1  ZINC001011676549   -0.1800
     11 C11        -7.1364    0.4098   50.5944 C.ar    1  ZINC001011676549    0.1600
     12 N12        -7.3959   -0.5988   51.4109 N.ar    1  ZINC001011676549   -0.5200
     13 C13        -7.9753   -0.3921   52.5764 C.ar    1  ZINC001011676549    0.3000
     14 N14        -8.3183    0.8160   52.9759 N.ar    1  ZINC001011676549   -0.5200
     15 C15        -8.0850    1.8734   52.2151 C.ar    1  ZINC001011676549    0.1600
     16 C16        -2.8501    2.8253   51.5475 C.3     1  ZINC001011676549   -0.1400
     17 C17        -1.3279    3.0175   51.3342 C.3     1  ZINC001011676549    0.1000
     18 N18        -1.1202    2.8250   49.8841 N.am    1  ZINC001011676549   -0.6100
     19 C19         0.0338    2.4471   49.2993 C.2     1  ZINC001011676549    0.5800
     20 O20         0.0899    2.3195   48.0911 O.2     1  ZINC001011676549   -0.5300
     21 C21         1.2254    2.1889   50.1223 C.2     1  ZINC001011676549   -0.1400
     22 C22         1.8286    3.2072   50.7086 C.2     1  ZINC001011676549   -0.1500
     23 C23         3.0555    3.0398   51.5598 C.3     1  ZINC001011676549    0.0900
     24 O24         3.2212    1.6664   51.9175 O.3     1  ZINC001011676549   -0.3800
     25 C25         3.1532    0.7806   50.7935 C.3     1  ZINC001011676549    0.0600
     26 C26         1.7118    0.7734   50.2723 C.3     1  ZINC001011676549   -0.1100
     27 H27        -2.9646    1.0383   49.1044 H       1  ZINC001011676549    0.0600
     28 H28        -3.7955    2.0836   47.9274 H       1  ZINC001011676549    0.0700
     29 H29        -2.0980    1.6188   47.6620 H       1  ZINC001011676549    0.0800
     30 H30        -4.7916    2.1230   49.3581 H       1  ZINC001011676549    0.4100
     31 H31        -7.9784    3.6269   50.2198 H       1  ZINC001011676549    0.1100
     32 H32        -7.2026    2.5420   49.0410 H       1  ZINC001011676549    0.1100
     33 H33        -6.6617    0.2334   49.6404 H       1  ZINC001011676549    0.1700
     34 H34        -8.1746   -1.2353   53.2212 H       1  ZINC001011676549    0.2000
     35 H35        -8.3682    2.8609   52.5487 H       1  ZINC001011676549    0.1700
     36 H36        -3.1891    3.3518   52.4396 H       1  ZINC001011676549    0.0900
     37 H37        -3.1069    1.7673   51.5989 H       1  ZINC001011676549    0.0800
     38 H38        -1.0274    4.0231   51.6287 H       1  ZINC001011676549    0.0800
     39 H39        -0.7684    2.2725   51.9000 H       1  ZINC001011676549    0.0800
     40 H40         1.4242    4.1991   50.5705 H       1  ZINC001011676549    0.1200
     41 H41         3.9302    3.3764   51.0033 H       1  ZINC001011676549    0.0700
     42 H42         2.9524    3.6391   52.4645 H       1  ZINC001011676549    0.1100
     43 H43         3.8277    1.1289   50.0113 H       1  ZINC001011676549    0.0600
     44 H44         3.4348   -0.2260   51.1028 H       1  ZINC001011676549    0.1000
     45 H45         1.0744    0.2366   50.9749 H       1  ZINC001011676549    0.0900
     46 H46         1.6791    0.2783   49.3018 H       1  ZINC001011676549    0.0900
@<TRIPOS>BOND
     1     1     2    1
     2     1    27    1
     3     1    28    1
     4     1    29    1
     5     2     3    1
     6     2    18    1
     7     2     4    1
     8     4     5    1
     9     4     6    1
    10     4    16    1
    11     6     7   am
    12     6    30    1
    13     7     8    2
    14     7     9    1
    15     9    10    1
    16     9    31    1
    17     9    32    1
    18    10    15   ar
    19    10    11   ar
    20    11    12   ar
    21    11    33    1
    22    12    13   ar
    23    13    14   ar
    24    13    34    1
    25    14    15   ar
    26    15    35    1
    27    16    17    1
    28    16    36    1
    29    16    37    1
    30    17    18    1
    31    17    38    1
    32    17    39    1
    33    18    19   am
    34    19    20    2
    35    19    21    1
    36    21    26    1
    37    21    22    2
    38    22    23    1
    39    22    40    1
    40    23    24    1
    41    23    41    1
    42    23    42    1
    43    24    25    1
    44    25    26    1
    45    25    43    1
    46    25    44    1
    47    26    45    1
    48    26    46    1
@<TRIPOS>SUBSTRUCTURE
     1 ZINC001011676549        1 TEMP              0 ****  ****    0 ROOT


##########                                Name:    ZINC000430767928
##########                DOCK_Rotatable_Bonds:                   4
##########                         Heavy_Atoms:                  25
##########                    Molecular_Weight:             358.505
##########                DOCK_Rotatable_Bonds:                   4
##########                       Formal_Charge:          -0.0100002
##########                     HBond_Acceptors:                   5
##########                        HBond_Donors:                   0
##########                         Heavy_Atoms:                  25
##########                          Grid_Score:          -29.323397
##########                     Grid_vdw_energy:          -28.795837
##########                      Grid_es_energy:           -0.527559
##########           Internal_energy_repulsive:           17.865910

@<TRIPOS>MOLECULE
ZINC000430767928
 51 55 1 0 0
SMALL
USER_CHARGES


@<TRIPOS>ATOM
      1 O1         -0.8732    4.2477   51.0164 O.2     1  ZINC000430767928   -0.4600
      2 C2         -1.4698    3.6305   50.1603 C.2     1  ZINC000430767928    0.5300
      3 C3         -2.9353    3.7308   49.8119 C.3     1  ZINC000430767928    0.0400
      4 H4         -3.1874    4.6647   49.3095 H       1  ZINC000430767928    0.1400
      5 C5         -3.8295    3.4502   51.0372 C.3     1  ZINC000430767928   -0.1100
      6 C6         -5.0806    2.7999   50.3929 C.3     1  ZINC000430767928   -0.1000
      7 H7         -5.8612    3.5459   50.2436 H       1  ZINC000430767928    0.1000
      8 C8         -5.5981    1.6580   51.2700 C.3     1  ZINC000430767928   -0.0800
      9 C9         -6.0648    2.2189   52.6148 C.3     1  ZINC000430767928   -0.1100
     10 C10        -6.5822    1.0769   53.4918 C.3     1  ZINC000430767928   -0.1200
     11 C11        -7.7553    0.3877   52.7920 C.3     1  ZINC000430767928   -0.1200
     12 C12        -7.2886   -0.1732   51.4472 C.3     1  ZINC000430767928   -0.1200
     13 C13        -6.7711    0.9688   50.5702 C.3     1  ZINC000430767928   -0.1200
     14 C14        -4.5897    2.2563   49.0337 C.3     1  ZINC000430767928    0.1600
     15 N15        -3.1447    2.5291   48.9563 N.am    1  ZINC000430767928   -0.6400
     16 C16        -1.9282    2.1787   48.5270 C.2     1  ZINC000430767928    0.7400
     17 O17        -1.7222    1.4608   47.5681 O.2     1  ZINC000430767928   -0.5100
     18 N18        -0.9638    2.7097   49.3101 N.am    1  ZINC000430767928   -0.5800
     19 C19         0.4501    2.3308   49.2516 C.3     1  ZINC000430767928    0.2600
     20 H20         0.5800    1.5218   48.5327 H       1  ZINC000430767928    0.1200
     21 C21         1.2715    3.5196   48.8240 C.2     1  ZINC000430767928   -0.2100
     22 C22         1.8012    4.4247   49.6482 C.2     1  ZINC000430767928   -0.1200
     23 C23         2.5190    5.4313   49.0255 C.2     1  ZINC000430767928   -0.1400
     24 C24         2.5720    5.3436   47.6955 C.2     1  ZINC000430767928   -0.2300
     25 S25         1.6845    3.9218   47.1623 S.3     1  ZINC000430767928    0.1700
     26 C26         0.9103    1.8634   50.6339 C.3     1  ZINC000430767928   -0.1700
     27 C27         1.4930    0.4529   50.7449 C.3     1  ZINC000430767928   -0.1700
     28 C28         2.4127    1.6711   50.8505 C.3     1  ZINC000430767928   -0.1600
     29 H29        -3.3418    2.7568   51.7223 H       1  ZINC000430767928    0.0800
     30 H30        -4.0931    4.3779   51.5452 H       1  ZINC000430767928    0.1000
     31 H31        -4.7985    0.9358   51.4353 H       1  ZINC000430767928    0.0700
     32 H32        -5.2290    2.7100   53.1134 H       1  ZINC000430767928    0.0600
     33 H33        -6.8643    2.9410   52.4495 H       1  ZINC000430767928    0.0700
     34 H34        -5.7826    0.3548   53.6571 H       1  ZINC000430767928    0.0600
     35 H35        -6.9147    1.4766   54.4498 H       1  ZINC000430767928    0.0600
     36 H36        -8.1239   -0.4258   53.4167 H       1  ZINC000430767928    0.0600
     37 H37        -8.5548    1.1098   52.6266 H       1  ZINC000430767928    0.0600
     38 H38        -6.4890   -0.8954   51.6124 H       1  ZINC000430767928    0.0600
     39 H39        -8.1242   -0.6642   50.9485 H       1  ZINC000430767928    0.0600
     40 H40        -7.5707    1.6909   50.4048 H       1  ZINC000430767928    0.0700
     41 H41        -6.4386    0.5691   49.6121 H       1  ZINC000430767928    0.0600
     42 H42        -4.7767    1.1843   48.9709 H       1  ZINC000430767928    0.0900
     43 H43        -5.0983    2.7727   48.2196 H       1  ZINC000430767928    0.0800
     44 H44         1.6793    4.3761   50.7202 H       1  ZINC000430767928    0.1400
     45 H45         2.9993    6.2274   49.5748 H       1  ZINC000430767928    0.1400
     46 H46         3.0845    6.0376   47.0458 H       1  ZINC000430767928    0.1600
     47 H47         0.3239    2.2337   51.4748 H       1  ZINC000430767928    0.1200
     48 H48         1.2898   -0.1050   51.6589 H       1  ZINC000430767928    0.1000
     49 H49         1.5483   -0.1419   49.8333 H       1  ZINC000430767928    0.1000
     50 H50         3.0732    1.8776   50.0083 H       1  ZINC000430767928    0.1000
     51 H51         2.8146    1.9145   51.8341 H       1  ZINC000430767928    0.1000
@<TRIPOS>BOND
     1     1     2    2
     2     2    18   am
     3     2     3    1
     4     3     4    1
     5     3    15    1
     6     3     5    1
     7     5     6    1
     8     5    29    1
     9     5    30    1
    10     6     7    1
    11     6     8    1
    12     6    14    1
    13     8    13    1
    14     8     9    1
    15     8    31    1
    16     9    10    1
    17     9    32    1
    18     9    33    1
    19    10    11    1
    20    10    34    1
    21    10    35    1
    22    11    12    1
    23    11    36    1
    24    11    37    1
    25    12    13    1
    26    12    38    1
    27    12    39    1
    28    13    40    1
    29    13    41    1
    30    14    15    1
    31    14    42    1
    32    14    43    1
    33    15    16   am
    34    16    17    2
    35    16    18   am
    36    18    19    1
    37    19    20    1
    38    19    21    1
    39    19    26    1
    40    21    25    1
    41    21    22    2
    42    22    23    1
    43    22    44    1
    44    23    24    2
    45    23    45    1
    46    24    25    1
    47    24    46    1
    48    26    28    1
    49    26    27    1
    50    26    47    1
    51    27    28    1
    52    27    48    1
    53    27    49    1
    54    28    50    1
    55    28    51    1
@<TRIPOS>SUBSTRUCTURE
     1 ZINC000430767928        1 TEMP              0 ****  ****    0 ROOT


##########                                Name:    ZINC000504860563
##########                DOCK_Rotatable_Bonds:                   6
##########                         Heavy_Atoms:                  25
##########                    Molecular_Weight:             370.786
##########                DOCK_Rotatable_Bonds:                   6
##########                       Formal_Charge:                0.01
##########                     HBond_Acceptors:                   9
##########                        HBond_Donors:                   0
##########                         Heavy_Atoms:                  25
##########                          Grid_Score:          -29.310617
##########                     Grid_vdw_energy:          -29.767227
##########                      Grid_es_energy:            0.456610
##########           Internal_energy_repulsive:           12.961222

@<TRIPOS>MOLECULE
ZINC000504860563
 42 44 1 0 0
SMALL
USER_CHARGES


@<TRIPOS>ATOM
      1 O1         -7.5267   -0.6330   52.4679 O.2     1  ZINC000504860563   -0.5100
      2 C2         -7.3277    0.5659   52.4473 C.2     1  ZINC000504860563    0.5700
      3 C3         -7.7012    1.3973   53.6112 C.ar    1  ZINC000504860563    0.0500
      4 N4         -6.8606    1.5181   54.6327 N.ar    1  ZINC000504860563   -0.4100
      5 C5         -7.1539    2.2476   55.6856 C.ar    1  ZINC000504860563    0.0600
      6 C6         -8.3611    2.9253   55.7733 C.ar    1  ZINC000504860563   -0.1000
      7 C7         -9.2707    2.8314   54.7352 C.ar    1  ZINC000504860563   -0.1700
      8 C8         -8.9352    2.0566   53.6272 C.ar    1  ZINC000504860563    0.1400
      9 O9         -9.7950    1.9353   52.5850 O.3     1  ZINC000504860563   -0.2600
     10 C10       -10.6084    0.7609   52.5484 C.3     1  ZINC000504860563   -0.0100
     11 C11       -11.7532    0.9019   53.5537 C.3     1  ZINC000504860563    0.2800
     12 F12       -12.7468   -0.0395   53.2639 F       1  ZINC000504860563   -0.1900
     13 F13       -11.2673    0.6837   54.8474 F       1  ZINC000504860563   -0.1900
     14 N14        -6.7615    1.1366   51.3654 N.am    1  ZINC000504860563   -0.6000
     15 C15        -6.5038    2.5826   51.3304 C.3     1  ZINC000504860563    0.0800
     16 C16        -5.0283    2.8123   50.9883 C.3     1  ZINC000504860563   -0.1500
     17 C17        -4.6911    2.0820   49.6863 C.3     1  ZINC000504860563    0.1600
     18 N18        -3.2893    2.3266   49.3384 N.pl3   1  ZINC000504860563   -0.3600
     19 C19        -2.7023    2.0402   48.1565 C.2     1  ZINC000504860563    0.0700
     20 C20        -1.4051    2.4187   48.2378 C.2     1  ZINC000504860563   -0.1900
     21 Cl21       -0.2158    2.2667   46.9824 Cl      1  ZINC000504860563   -0.0400
     22 C22        -1.1925    2.9547   49.5129 C.2     1  ZINC000504860563    0.0600
     23 N23        -2.3223    2.9047   50.1711 N.2     1  ZINC000504860563   -0.2800
     24 C24        -4.9164    0.5793   49.8691 C.3     1  ZINC000504860563   -0.1400
     25 C25        -6.3849    0.3235   50.2010 C.3     1  ZINC000504860563    0.1200
     26 H26        -6.4437    2.3203   56.4960 H       1  ZINC000504860563    0.1700
     27 H27        -8.5891    3.5209   56.6449 H       1  ZINC000504860563    0.1500
     28 H28       -10.2170    3.3500   54.7809 H       1  ZINC000504860563    0.1500
     29 H29       -11.0184    0.6340   51.5464 H       1  ZINC000504860563    0.1000
     30 H30       -10.0034   -0.1084   52.8062 H       1  ZINC000504860563    0.1000
     31 H31       -12.1731    1.9055   53.4877 H       1  ZINC000504860563    0.1300
     32 H32        -7.1318    3.0474   50.5705 H       1  ZINC000504860563    0.0700
     33 H33        -6.7246    3.0168   52.3055 H       1  ZINC000504860563    0.1600
     34 H34        -4.8454    3.8797   50.8646 H       1  ZINC000504860563    0.0900
     35 H35        -4.4036    2.4265   51.7939 H       1  ZINC000504860563    0.0700
     36 H36        -5.3334    2.4506   48.8864 H       1  ZINC000504860563    0.1100
     37 H37        -3.1816    1.5893   47.3001 H       1  ZINC000504860563    0.1800
     38 H38        -0.2580    3.3455   49.8877 H       1  ZINC000504860563    0.1900
     39 H39        -4.6538    0.0576   48.9488 H       1  ZINC000504860563    0.0900
     40 H40        -4.2928    0.2147   50.6853 H       1  ZINC000504860563    0.0800
     41 H41        -6.5294   -0.7325   50.4290 H       1  ZINC000504860563    0.1000
     42 H42        -7.0062    0.6041   49.3504 H       1  ZINC000504860563    0.0800
@<TRIPOS>BOND
     1     1     2    2
     2     2     3    1
     3     2    14   am
     4     3     8   ar
     5     3     4   ar
     6     4     5   ar
     7     5     6   ar
     8     5    26    1
     9     6     7   ar
    10     6    27    1
    11     7     8   ar
    12     7    28    1
    13     8     9    1
    14     9    10    1
    15    10    11    1
    16    10    29    1
    17    10    30    1
    18    11    12    1
    19    11    13    1
    20    11    31    1
    21    14    25    1
    22    14    15    1
    23    15    16    1
    24    15    32    1
    25    15    33    1
    26    16    17    1
    27    16    34    1
    28    16    35    1
    29    17    18    1
    30    17    24    1
    31    17    36    1
    32    18    23    1
    33    18    19    1
    34    19    20    2
    35    19    37    1
    36    20    21    1
    37    20    22    1
    38    22    23    2
    39    22    38    1
    40    24    25    1
    41    24    39    1
    42    24    40    1
    43    25    41    1
    44    25    42    1
@<TRIPOS>SUBSTRUCTURE
     1 ZINC000504860563        1 TEMP              0 ****  ****    0 ROOT


##########                                Name:    ZINC000373864439
##########                DOCK_Rotatable_Bonds:                   7
##########                         Heavy_Atoms:                  23
##########                    Molecular_Weight:              344.45
##########                DOCK_Rotatable_Bonds:                   7
##########                       Formal_Charge:          -0.0300001
##########                     HBond_Acceptors:                   7
##########                        HBond_Donors:                   1
##########                         Heavy_Atoms:                  23
##########                          Grid_Score:          -29.271793
##########                     Grid_vdw_energy:          -29.210484
##########                      Grid_es_energy:           -0.061310
##########           Internal_energy_repulsive:           22.811373

@<TRIPOS>MOLECULE
ZINC000373864439
 48 49 1 0 0
SMALL
USER_CHARGES


@<TRIPOS>ATOM
      1 C1          2.6140   -0.8603   50.3855 C.3     1  ZINC000373864439   -0.1500
      2 C2          2.6009   -0.1751   49.0175 C.3     1  ZINC000373864439   -0.6300
      3 S3          2.2020    1.5822   49.2252 S.o2    1  ZINC000373864439    2.6100
      4 O4          3.1100    2.1962   50.1295 O.2     1  ZINC000373864439   -0.9500
      5 O5          1.9032    2.1775   47.9700 O.2     1  ZINC000373864439   -0.9600
      6 N6          0.7563    1.5852   50.0330 N.am    1  ZINC000373864439   -1.1200
      7 C7          0.1142    2.8551   50.3808 C.3     1  ZINC000373864439    0.1100
      8 C8         -1.0001    3.1552   49.3762 C.3     1  ZINC000373864439    0.0500
      9 N9         -2.2819    2.6737   49.9083 N.3     1  ZINC000373864439   -0.5300
     10 C10        -3.0131    1.8985   48.8979 C.3     1  ZINC000373864439    0.0400
     11 C11        -4.2692    1.2928   49.5284 C.3     1  ZINC000373864439   -0.1300
     12 C12        -5.1533    2.4172   50.0746 C.3     1  ZINC000373864439    0.1800
     13 F13        -5.5620    3.2436   49.0222 F       1  ZINC000373864439   -0.2100
     14 C14        -6.3638    1.8241   50.7484 C.ar    1  ZINC000373864439   -0.1500
     15 C15        -6.3298    0.5226   51.2096 C.ar    1  ZINC000373864439   -0.0700
     16 C16        -7.4404   -0.0224   51.8276 C.ar    1  ZINC000373864439   -0.1600
     17 C17        -8.5869    0.7336   51.9859 C.ar    1  ZINC000373864439   -0.0700
     18 C18        -8.6258    2.0362   51.5268 C.ar    1  ZINC000373864439   -0.2100
     19 C19        -7.5113    2.5869   50.9113 C.ar    1  ZINC000373864439    0.1400
     20 O20        -7.5469    3.8679   50.4588 O.3     1  ZINC000373864439   -0.3100
     21 C21        -8.7853    4.3297   49.9154 C.3     1  ZINC000373864439    0.0200
     22 C22        -4.3525    3.2387   51.0887 C.3     1  ZINC000373864439   -0.1300
     23 C23        -3.0942    3.7880   50.4130 C.3     1  ZINC000373864439    0.0600
     24 H24         1.6328   -0.7629   50.8501 H       1  ZINC000373864439    0.0700
     25 H25         2.8538   -1.9161   50.2607 H       1  ZINC000373864439    0.0800
     26 H26         3.3649   -0.3898   51.0203 H       1  ZINC000373864439    0.0700
     27 H27         3.5821   -0.2724   48.5529 H       1  ZINC000373864439    0.1300
     28 H28         1.8500   -0.6456   48.3827 H       1  ZINC000373864439    0.1300
     29 H29         0.3348    0.7460   50.2758 H       1  ZINC000373864439    0.4200
     30 H30        -0.3090    2.7858   51.3829 H       1  ZINC000373864439    0.0700
     31 H31         0.8535    3.6557   50.3532 H       1  ZINC000373864439    0.0900
     32 H32        -1.0576    4.2306   49.2077 H       1  ZINC000373864439    0.0900
     33 H33        -0.7853    2.6508   48.4340 H       1  ZINC000373864439    0.0400
     34 H34        -3.2996    2.5534   48.0750 H       1  ZINC000373864439    0.0400
     35 H35        -2.3747    1.0996   48.5208 H       1  ZINC000373864439    0.0900
     36 H36        -4.8199    0.7305   48.7744 H       1  ZINC000373864439    0.0800
     37 H37        -3.9828    0.6270   50.3426 H       1  ZINC000373864439    0.1000
     38 H38        -5.4354   -0.0702   51.0870 H       1  ZINC000373864439    0.1300
     39 H39        -7.4122   -1.0405   52.1868 H       1  ZINC000373864439    0.1300
     40 H40        -9.4531    0.3057   52.4687 H       1  ZINC000373864439    0.1300
     41 H41        -9.5218    2.6264   51.6504 H       1  ZINC000373864439    0.1300
     42 H42        -8.6767    5.3650   49.5922 H       1  ZINC000373864439    0.1000
     43 H43        -9.0612    3.7099   49.0621 H       1  ZINC000373864439    0.0600
     44 H44        -9.5625    4.2663   50.6769 H       1  ZINC000373864439    0.0600
     45 H45        -4.9629    4.0667   51.4494 H       1  ZINC000373864439    0.0800
     46 H46        -4.0675    2.6035   51.9274 H       1  ZINC000373864439    0.1000
     47 H47        -2.5145    4.3616   51.1363 H       1  ZINC000373864439    0.0800
     48 H48        -3.3802    4.4341   49.5830 H       1  ZINC000373864439    0.0400
@<TRIPOS>BOND
     1     1     2    1
     2     1    24    1
     3     1    25    1
     4     1    26    1
     5     2     3    1
     6     2    27    1
     7     2    28    1
     8     3     4    2
     9     3     5    2
    10     3     6   am
    11     6     7    1
    12     6    29    1
    13     7     8    1
    14     7    30    1
    15     7    31    1
    16     8     9    1
    17     8    32    1
    18     8    33    1
    19     9    23    1
    20     9    10    1
    21    10    11    1
    22    10    34    1
    23    10    35    1
    24    11    12    1
    25    11    36    1
    26    11    37    1
    27    12    13    1
    28    12    14    1
    29    12    22    1
    30    14    19   ar
    31    14    15   ar
    32    15    16   ar
    33    15    38    1
    34    16    17   ar
    35    16    39    1
    36    17    18   ar
    37    17    40    1
    38    18    19   ar
    39    18    41    1
    40    19    20    1
    41    20    21    1
    42    21    42    1
    43    21    43    1
    44    21    44    1
    45    22    23    1
    46    22    45    1
    47    22    46    1
    48    23    47    1
    49    23    48    1
@<TRIPOS>SUBSTRUCTURE
     1 ZINC000373864439        1 TEMP              0 ****  ****    0 ROOT


##########                                Name:    ZINC000011157684
##########                DOCK_Rotatable_Bonds:                   7
##########                         Heavy_Atoms:                  25
##########                    Molecular_Weight:             374.866
##########                DOCK_Rotatable_Bonds:                   7
##########                       Formal_Charge:           0.0400001
##########                     HBond_Acceptors:                   6
##########                        HBond_Donors:                   2
##########                         Heavy_Atoms:                  25
##########                          Grid_Score:          -29.265125
##########                     Grid_vdw_energy:          -27.351654
##########                      Grid_es_energy:           -1.913471
##########           Internal_energy_repulsive:            6.268805

@<TRIPOS>MOLECULE
ZINC000011157684
 41 43 1 0 0
SMALL
USER_CHARGES


@<TRIPOS>ATOM
      1 O1         -6.1519    3.3982   51.1085 O.2     1  ZINC000011157684   -0.5200
      2 C2         -5.5079    2.5209   51.6439 C.2     1  ZINC000011157684    0.5100
      3 C3         -4.2875    1.9587   50.9616 C.3     1  ZINC000011157684    0.1000
      4 N4         -3.6354    3.0129   50.1807 N.pl3   1  ZINC000011157684   -0.7300
      5 C5         -2.5364    2.7058   49.3713 C.ar    1  ZINC000011157684    0.2200
      6 C6         -2.7321    2.1443   48.1171 C.ar    1  ZINC000011157684   -0.1600
      7 C7         -1.6455    1.8421   47.3190 C.ar    1  ZINC000011157684   -0.0900
      8 C8         -0.3617    2.0982   47.7693 C.ar    1  ZINC000011157684    0.0500
      9 F9          0.6992    1.8013   46.9872 F       1  ZINC000011157684   -0.1400
     10 C10        -0.1631    2.6587   49.0200 C.ar    1  ZINC000011157684   -0.0900
     11 C11        -1.2470    2.9676   49.8196 C.ar    1  ZINC000011157684   -0.0900
     12 Cl12       -0.9980    3.6702   51.3874 Cl      1  ZINC000011157684   -0.0500
     13 N13        -5.8804    2.0528   52.8516 N.am    1  ZINC000011157684   -0.7200
     14 C14        -7.0668    2.5993   53.5149 C.3     1  ZINC000011157684    0.2600
     15 H15        -7.1788    3.6510   53.2508 H       1  ZINC000011157684    0.1200
     16 C16        -6.9118    2.4702   55.0083 C.2     1  ZINC000011157684   -0.1900
     17 C17        -6.0481    3.1606   55.7543 C.2     1  ZINC000011157684   -0.1200
     18 C18        -6.0863    2.8727   57.1078 C.2     1  ZINC000011157684   -0.1300
     19 C19        -6.9809    1.9484   57.4608 C.2     1  ZINC000011157684   -0.2100
     20 S20        -7.8475    1.3914   56.0351 S.3     1  ZINC000011157684    0.1100
     21 C21        -8.2878    1.8368   53.0687 C.ar    1  ZINC000011157684   -0.0900
     22 C22        -9.5307    2.4408   53.1033 C.ar    1  ZINC000011157684   -0.1100
     23 C23       -10.6506    1.7414   52.6940 C.ar    1  ZINC000011157684   -0.1100
     24 C24       -10.5276    0.4382   52.2498 C.ar    1  ZINC000011157684   -0.1100
     25 C25        -9.2845   -0.1655   52.2144 C.ar    1  ZINC000011157684   -0.1100
     26 C26        -8.1640    0.5353   52.6196 C.ar    1  ZINC000011157684   -0.1000
     27 H27        -3.5933    1.5805   51.7122 H       1  ZINC000011157684    0.1000
     28 H28        -4.5838    1.1460   50.2985 H       1  ZINC000011157684    0.1000
     29 H29        -3.9657    3.9239   50.2248 H       1  ZINC000011157684    0.4200
     30 H30        -3.7333    1.9435   47.7653 H       1  ZINC000011157684    0.1400
     31 H31        -1.7977    1.4053   46.3432 H       1  ZINC000011157684    0.1400
     32 H32         0.8393    2.8581   49.3692 H       1  ZINC000011157684    0.1500
     33 H33        -5.3630    1.3539   53.2815 H       1  ZINC000011157684    0.4000
     34 H34        -5.3702    3.8887   55.3341 H       1  ZINC000011157684    0.1400
     35 H35        -5.4403    3.3593   57.8235 H       1  ZINC000011157684    0.1400
     36 H36        -7.1499    1.5984   58.4685 H       1  ZINC000011157684    0.1700
     37 H37        -9.6268    3.4590   53.4503 H       1  ZINC000011157684    0.1200
     38 H38       -11.6218    2.2131   52.7217 H       1  ZINC000011157684    0.1300
     39 H39       -11.4027   -0.1085   51.9308 H       1  ZINC000011157684    0.1300
     40 H40        -9.1884   -1.1838   51.8677 H       1  ZINC000011157684    0.1300
     41 H41        -7.1929    0.0637   52.5919 H       1  ZINC000011157684    0.1300
@<TRIPOS>BOND
     1     1     2    2
     2     2     3    1
     3     2    13   am
     4     3     4    1
     5     3    27    1
     6     3    28    1
     7     4     5    1
     8     4    29    1
     9     5    11   ar
    10     5     6   ar
    11     6     7   ar
    12     6    30    1
    13     7     8   ar
    14     7    31    1
    15     8     9    1
    16     8    10   ar
    17    10    11   ar
    18    10    32    1
    19    11    12    1
    20    13    14    1
    21    13    33    1
    22    14    15    1
    23    14    16    1
    24    14    21    1
    25    16    20    1
    26    16    17    2
    27    17    18    1
    28    17    34    1
    29    18    19    2
    30    18    35    1
    31    19    20    1
    32    19    36    1
    33    21    26   ar
    34    21    22   ar
    35    22    23   ar
    36    22    37    1
    37    23    24   ar
    38    23    38    1
    39    24    25   ar
    40    24    39    1
    41    25    26   ar
    42    25    40    1
    43    26    41    1
@<TRIPOS>SUBSTRUCTURE
     1 ZINC000011157684        1 TEMP              0 ****  ****    0 ROOT


##########                                Name:    ZINC000438893617
##########                DOCK_Rotatable_Bonds:                   5
##########                         Heavy_Atoms:                  29
##########                    Molecular_Weight:             412.596
##########                DOCK_Rotatable_Bonds:                   5
##########                       Formal_Charge:           0.0600001
##########                     HBond_Acceptors:                   5
##########                        HBond_Donors:                   0
##########                         Heavy_Atoms:                  29
##########                          Grid_Score:          -29.261860
##########                     Grid_vdw_energy:          -28.431957
##########                      Grid_es_energy:           -0.829902
##########           Internal_energy_repulsive:          167.882477

@<TRIPOS>MOLECULE
ZINC000438893617
 61 66 1 0 0
SMALL
USER_CHARGES


@<TRIPOS>ATOM
      1 C1        -11.0227   -1.1834   58.4880 C.3     1  ZINC000438893617   -0.1000
      2 C2        -12.0090   -1.8448   57.5604 C.2     1  ZINC000438893617   -0.0900
      3 C3        -12.6356   -1.1808   56.5878 C.2     1  ZINC000438893617   -0.1600
      4 C4        -12.4563    0.2835   56.2803 C.3     1  ZINC000438893617   -0.0400
      5 H5        -11.7440    0.8129   56.9131 H       1  ZINC000438893617    0.1400
      6 C6        -13.6829    1.0589   55.7955 C.3     1  ZINC000438893617   -0.1400
      7 C7        -12.5577    0.7155   54.8162 C.3     1  ZINC000438893617   -0.1800
      8 H8        -12.7544   -0.0593   54.0752 H       1  ZINC000438893617    0.1300
      9 C9        -11.6658    1.8409   54.3587 C.2     1  ZINC000438893617    0.5500
     10 O10       -12.1046    2.9687   54.2799 O.2     1  ZINC000438893617   -0.5300
     11 N11       -10.3804    1.5938   54.0373 N.am    1  ZINC000438893617   -0.6100
     12 C12        -9.8362    0.2315   54.1240 C.3     1  ZINC000438893617    0.0900
     13 C13        -9.2400   -0.1457   52.7622 C.3     1  ZINC000438893617    0.1000
     14 N14        -8.3577    0.9425   52.3182 N.am    1  ZINC000438893617   -0.6100
     15 C15        -7.0725    0.6954   51.9959 C.2     1  ZINC000438893617    0.5300
     16 O16        -6.6348   -0.4332   52.0711 O.2     1  ZINC000438893617   -0.5300
     17 C17        -6.1796    1.8214   51.5422 C.3     1  ZINC000438893617   -0.0700
     18 C18        -4.7997    1.2656   51.1845 C.3     1  ZINC000438893617   -0.1100
     19 C19        -3.8932    2.4087   50.7239 C.3     1  ZINC000438893617   -0.0800
     20 C20        -3.7535    3.4345   51.8505 C.3     1  ZINC000438893617   -0.1100
     21 C21        -5.1333    3.9903   52.2082 C.3     1  ZINC000438893617   -0.0800
     22 C22        -5.7464    4.6636   50.9787 C.3     1  ZINC000438893617   -0.1100
     23 C23        -5.8861    3.6379   49.8521 C.3     1  ZINC000438893617   -0.0900
     24 C24        -4.5062    3.0821   49.4943 C.3     1  ZINC000438893617   -0.1100
     25 C25        -6.7926    2.4946   50.3127 C.3     1  ZINC000438893617   -0.0900
     26 C26        -6.0398    2.8471   52.6689 C.3     1  ZINC000438893617   -0.1200
     27 C27        -8.9018    2.3050   52.2316 C.3     1  ZINC000438893617    0.0700
     28 C28        -9.4996    2.6811   53.5881 C.3     1  ZINC000438893617    0.1000
     29 S29       -13.7027   -2.2761   55.7187 S.3     1  ZINC000438893617    0.1000
     30 C30       -13.2237   -3.6136   56.7557 C.2     1  ZINC000438893617   -0.2100
     31 C31       -12.3292   -3.1886   57.6493 C.2     1  ZINC000438893617   -0.1300
     32 H32       -10.0219   -1.2491   58.0611 H       1  ZINC000438893617    0.0700
     33 H33       -11.2934   -0.1357   58.6194 H       1  ZINC000438893617    0.0700
     34 H34       -11.0390   -1.6869   59.4546 H       1  ZINC000438893617    0.0700
     35 H35       -14.6195    0.5100   55.6989 H       1  ZINC000438893617    0.1100
     36 H36       -13.7773    2.0987   56.1090 H       1  ZINC000438893617    0.1100
     37 H37        -9.0581    0.1961   54.8865 H       1  ZINC000438893617    0.0800
     38 H38       -10.6342   -0.4657   54.3796 H       1  ZINC000438893617    0.1000
     39 H39        -8.6653   -1.0670   52.8569 H       1  ZINC000438893617    0.1100
     40 H40       -10.0422   -0.2849   52.0375 H       1  ZINC000438893617    0.0700
     41 H41        -4.3630    0.7860   52.0605 H       1  ZINC000438893617    0.0800
     42 H42        -4.8993    0.5348   50.3819 H       1  ZINC000438893617    0.0700
     43 H43        -2.9101    2.0128   50.4691 H       1  ZINC000438893617    0.0800
     44 H44        -3.3167    2.9549   52.7265 H       1  ZINC000438893617    0.0600
     45 H45        -3.1076    4.2489   51.5224 H       1  ZINC000438893617    0.0700
     46 H46        -5.0338    4.7210   53.0108 H       1  ZINC000438893617    0.0800
     47 H47        -6.7294    5.0596   51.2335 H       1  ZINC000438893617    0.0600
     48 H48        -5.1006    5.4780   50.6505 H       1  ZINC000438893617    0.0700
     49 H49        -6.3229    4.1175   48.9761 H       1  ZINC000438893617    0.0700
     50 H50        -3.8604    3.8965   49.1661 H       1  ZINC000438893617    0.0700
     51 H51        -4.6057    2.3513   48.6917 H       1  ZINC000438893617    0.0600
     52 H52        -6.8922    1.7638   49.5100 H       1  ZINC000438893617    0.0700
     53 H53        -7.7757    2.8905   50.5675 H       1  ZINC000438893617    0.0700
     54 H54        -7.0230    3.2430   52.9236 H       1  ZINC000438893617    0.0700
     55 H55        -5.6032    2.3675   53.5448 H       1  ZINC000438893617    0.0800
     56 H56        -8.1038    3.0020   51.9760 H       1  ZINC000438893617    0.1300
     57 H57        -9.6799    2.3403   51.4691 H       1  ZINC000438893617    0.0800
     58 H58       -10.0738    3.6026   53.4919 H       1  ZINC000438893617    0.1100
     59 H59        -8.6991    2.8202   54.3147 H       1  ZINC000438893617    0.0700
     60 H60       -13.5937   -4.6251   56.6778 H       1  ZINC000438893617    0.1700
     61 H61       -11.8937   -3.8416   58.3911 H       1  ZINC000438893617    0.1400
@<TRIPOS>BOND
     1     1     2    1
     2     1    32    1
     3     1    33    1
     4     1    34    1
     5     2    31    1
     6     2     3    2
     7     3     4    1
     8     3    29    1
     9     4     5    1
    10     4     7    1
    11     4     6    1
    12     6     7    1
    13     6    35    1
    14     6    36    1
    15     7     8    1
    16     7     9    1
    17     9    10    2
    18     9    11   am
    19    11    28    1
    20    11    12    1
    21    12    13    1
    22    12    37    1
    23    12    38    1
    24    13    14    1
    25    13    39    1
    26    13    40    1
    27    14    15   am
    28    14    27    1
    29    15    16    2
    30    15    17    1
    31    17    25    1
    32    17    26    1
    33    17    18    1
    34    18    19    1
    35    18    41    1
    36    18    42    1
    37    19    24    1
    38    19    20    1
    39    19    43    1
    40    20    21    1
    41    20    44    1
    42    20    45    1
    43    21    22    1
    44    21    26    1
    45    21    46    1
    46    22    23    1
    47    22    47    1
    48    22    48    1
    49    23    24    1
    50    23    25    1
    51    23    49    1
    52    24    50    1
    53    24    51    1
    54    25    52    1
    55    25    53    1
    56    26    54    1
    57    26    55    1
    58    27    28    1
    59    27    56    1
    60    27    57    1
    61    28    58    1
    62    28    59    1
    63    29    30    1
    64    30    31    2
    65    30    60    1
    66    31    61    1
@<TRIPOS>SUBSTRUCTURE
     1 ZINC000438893617        1 TEMP              0 ****  ****    0 ROOT


##########                                Name:    ZINC001362451754
##########                DOCK_Rotatable_Bonds:                   6
##########                         Heavy_Atoms:                  22
##########                    Molecular_Weight:             339.846
##########                DOCK_Rotatable_Bonds:                   6
##########                       Formal_Charge:         -0.00999987
##########                     HBond_Acceptors:                   7
##########                        HBond_Donors:                   1
##########                         Heavy_Atoms:                  22
##########                          Grid_Score:          -29.261715
##########                     Grid_vdw_energy:          -27.463131
##########                      Grid_es_energy:           -1.798584
##########           Internal_energy_repulsive:           14.930678

@<TRIPOS>MOLECULE
ZINC001362451754
 40 42 1 0 0
SMALL
USER_CHARGES


@<TRIPOS>ATOM
      1 C1        -13.9670   -3.4203   56.1788 C.3     1  ZINC001362451754   -0.1700
      2 C2        -14.1444   -2.1419   57.0006 C.3     1  ZINC001362451754    0.1400
      3 H3        -14.3965   -1.3090   56.3443 H       1  ZINC001362451754    0.0800
      4 C4        -15.2605   -2.3417   58.0475 C.3     1  ZINC001362451754   -0.1000
      5 H5        -15.8262   -1.4207   58.1886 H       1  ZINC001362451754    0.1000
      6 C6        -16.1858   -3.4901   57.6402 C.3     1  ZINC001362451754    0.0900
      7 O7        -17.2513   -3.6017   58.5858 O.3     1  ZINC001362451754   -0.5700
      8 C8        -14.4704   -2.7029   59.3330 C.3     1  ZINC001362451754   -0.1200
      9 C9        -13.2037   -1.8286   59.1781 C.3     1  ZINC001362451754    0.0900
     10 N10       -12.9059   -1.8433   57.7344 N.am    1  ZINC001362451754   -0.6100
     11 C11       -11.6973   -1.6250   57.1793 C.2     1  ZINC001362451754    0.6100
     12 O12       -11.5675   -1.6620   55.9698 O.2     1  ZINC001362451754   -0.5200
     13 C13       -10.5391   -1.3432   58.0325 C.2     1  ZINC001362451754   -0.2500
     14 C14        -9.4671   -2.1712   58.2126 C.2     1  ZINC001362451754   -0.0500
     15 C15        -8.5242   -1.6605   59.0728 C.2     1  ZINC001362451754   -0.1100
     16 C16        -8.8071   -0.4518   59.5725 C.2     1  ZINC001362451754   -0.2500
     17 C17        -7.9225    0.3053   60.5292 C.3     1  ZINC001362451754    0.2100
     18 N18        -8.3842    0.0826   61.9016 N.pl3   1  ZINC001362451754   -0.3700
     19 C19        -7.5995   -0.0414   62.9936 C.2     1  ZINC001362451754    0.0700
     20 C20        -8.4078   -0.2319   64.0627 C.2     1  ZINC001362451754   -0.1800
     21 Cl21       -7.8937   -0.4439   65.7072 Cl      1  ZINC001362451754   -0.0400
     22 C22        -9.7308   -0.2338   63.6068 C.2     1  ZINC001362451754    0.0700
     23 N23        -9.7175   -0.0453   62.3121 N.2     1  ZINC001362451754   -0.2700
     24 S24       -10.3069    0.1142   58.9885 S.3     1  ZINC001362451754    0.2300
     25 H25       -13.7092   -4.2459   56.8423 H       1  ZINC001362451754    0.0600
     26 H26       -14.8969   -3.6495   55.6582 H       1  ZINC001362451754    0.0700
     27 H27       -13.1688   -3.2764   55.4507 H       1  ZINC001362451754    0.0700
     28 H28       -16.5974   -3.2914   56.6506 H       1  ZINC001362451754    0.0500
     29 H29       -15.6204   -4.4218   57.6181 H       1  ZINC001362451754    0.0500
     30 H30       -17.9522   -4.2118   58.3183 H       1  ZINC001362451754    0.3800
     31 H31       -15.0307   -2.4271   60.2265 H       1  ZINC001362451754    0.0900
     32 H32       -14.2116   -3.7616   59.3481 H       1  ZINC001362451754    0.0800
     33 H33       -12.3747   -2.2578   59.7409 H       1  ZINC001362451754    0.0800
     34 H34       -13.4045   -0.8111   59.5136 H       1  ZINC001362451754    0.0800
     35 H35        -9.3721   -3.1330   57.7307 H       1  ZINC001362451754    0.1600
     36 H36        -7.6194   -2.1941   59.3239 H       1  ZINC001362451754    0.1500
     37 H37        -6.8954   -0.0460   60.4299 H       1  ZINC001362451754    0.1100
     38 H38        -7.9662    1.3699   60.2995 H       1  ZINC001362451754    0.1100
     39 H39        -6.5206    0.0055   63.0113 H       1  ZINC001362451754    0.1800
     40 H40       -10.6110   -0.3679   64.2182 H       1  ZINC001362451754    0.1900
@<TRIPOS>BOND
     1     1     2    1
     2     1    25    1
     3     1    26    1
     4     1    27    1
     5     2     3    1
     6     2    10    1
     7     2     4    1
     8     4     5    1
     9     4     6    1
    10     4     8    1
    11     6     7    1
    12     6    28    1
    13     6    29    1
    14     7    30    1
    15     8     9    1
    16     8    31    1
    17     8    32    1
    18     9    10    1
    19     9    33    1
    20     9    34    1
    21    10    11   am
    22    11    12    2
    23    11    13    1
    24    13    24    1
    25    13    14    2
    26    14    15    1
    27    14    35    1
    28    15    16    2
    29    15    36    1
    30    16    17    1
    31    16    24    1
    32    17    18    1
    33    17    37    1
    34    17    38    1
    35    18    23    1
    36    18    19    1
    37    19    20    2
    38    19    39    1
    39    20    21    1
    40    20    22    1
    41    22    23    2
    42    22    40    1
@<TRIPOS>SUBSTRUCTURE
     1 ZINC001362451754        1 TEMP              0 ****  ****    0 ROOT


##########                                Name:    ZINC000450219577
##########                DOCK_Rotatable_Bonds:                   8
##########                         Heavy_Atoms:                  26
##########                    Molecular_Weight:             353.421
##########                DOCK_Rotatable_Bonds:                   8
##########                       Formal_Charge:          -0.0199997
##########                     HBond_Acceptors:                   6
##########                        HBond_Donors:                   1
##########                         Heavy_Atoms:                  26
##########                          Grid_Score:          -29.249483
##########                     Grid_vdw_energy:          -29.842894
##########                      Grid_es_energy:            0.593410
##########           Internal_energy_repulsive:           34.614777

@<TRIPOS>MOLECULE
ZINC000450219577
 49 51 1 0 0
SMALL
USER_CHARGES


@<TRIPOS>ATOM
      1 C1        -17.7529   -3.0211   58.4531 C.3     1  ZINC000450219577   -0.1800
      2 C2        -16.9507   -1.7888   58.0299 C.3     1  ZINC000450219577    0.1200
      3 C3        -17.8677   -0.8128   57.2900 C.3     1  ZINC000450219577   -0.1800
      4 C4        -16.3735   -1.1053   59.2710 C.3     1  ZINC000450219577   -0.1400
      5 O5        -15.8672   -2.1945   57.1527 O.3     1  ZINC000450219577   -0.3400
      6 C6        -15.0196   -3.1242   57.6209 C.2     1  ZINC000450219577    0.4700
      7 O7        -15.0645   -3.4521   58.7829 O.2     1  ZINC000450219577   -0.5000
      8 C8        -14.0122   -3.7589   56.6972 C.3     1  ZINC000450219577    0.2000
      9 H9        -13.6907   -4.7144   57.1115 H       1  ZINC000450219577    0.1400
     10 N10       -14.6235   -3.9772   55.3838 N.am    1  ZINC000450219577   -0.7100
     11 C11       -14.9654   -5.2225   54.9981 C.2     1  ZINC000450219577    0.5800
     12 O12       -14.7651   -6.1648   55.7395 O.2     1  ZINC000450219577   -0.5200
     13 C13       -15.5838   -5.4426   53.6736 C.ar    1  ZINC000450219577   -0.2500
     14 C14       -15.2323   -6.5476   52.8901 C.ar    1  ZINC000450219577    0.1900
     15 N15       -15.8104   -6.7059   51.7124 N.ar    1  ZINC000450219577   -0.5100
     16 C16       -16.7051   -5.8420   51.2740 C.ar    1  ZINC000450219577    0.3800
     17 C17       -17.3359   -6.0667   49.9241 C.3     1  ZINC000450219577   -0.1100
     18 C18       -16.9474   -5.1102   48.7947 C.3     1  ZINC000450219577   -0.1500
     19 C19       -16.4275   -6.5491   48.7912 C.3     1  ZINC000450219577   -0.1500
     20 N20       -17.0657   -4.7879   51.9797 N.ar    1  ZINC000450219577   -0.5200
     21 C21       -16.5418   -4.5551   53.1703 C.ar    1  ZINC000450219577    0.2200
     22 C22       -12.8205   -2.8480   56.5514 C.ar    1  ZINC000450219577   -0.1100
     23 C23       -12.7643   -1.9453   55.5060 C.ar    1  ZINC000450219577   -0.1000
     24 C24       -11.6713   -1.1097   55.3724 C.ar    1  ZINC000450219577   -0.1200
     25 C25       -10.6345   -1.1766   56.2843 C.ar    1  ZINC000450219577   -0.1100
     26 C26       -10.6911   -2.0787   57.3302 C.ar    1  ZINC000450219577   -0.1200
     27 C27       -11.7862   -2.9113   57.4664 C.ar    1  ZINC000450219577   -0.0800
     28 H28       -18.1642   -3.5081   57.5689 H       1  ZINC000450219577    0.0800
     29 H29       -17.0997   -3.7164   58.9802 H       1  ZINC000450219577    0.0600
     30 H30       -18.5664   -2.7166   59.1116 H       1  ZINC000450219577    0.0700
     31 H31       -18.6811   -0.5083   57.9485 H       1  ZINC000450219577    0.0700
     32 H32       -17.2963    0.0651   56.9886 H       1  ZINC000450219577    0.0600
     33 H33       -18.2790   -1.2998   56.4058 H       1  ZINC000450219577    0.0800
     34 H34       -15.7202   -1.8006   59.7981 H       1  ZINC000450219577    0.0700
     35 H35       -15.8021   -0.2274   58.9696 H       1  ZINC000450219577    0.0700
     36 H36       -17.1870   -0.8007   59.9295 H       1  ZINC000450219577    0.0800
     37 H37       -14.7823   -3.2255   54.7917 H       1  ZINC000450219577    0.4100
     38 H38       -14.5001   -7.2592   53.2420 H       1  ZINC000450219577    0.1700
     39 H39       -18.3607   -6.4374   49.9398 H       1  ZINC000450219577    0.1300
     40 H40       -17.7170   -4.8514   48.0674 H       1  ZINC000450219577    0.1000
     41 H41       -16.2357   -4.3184   49.0283 H       1  ZINC000450219577    0.1100
     42 H42       -15.3736   -6.7040   49.0225 H       1  ZINC000450219577    0.1000
     43 H43       -16.8549   -7.2370   48.0617 H       1  ZINC000450219577    0.1100
     44 H44       -16.8421   -3.6896   53.7423 H       1  ZINC000450219577    0.1800
     45 H45       -13.5743   -1.8929   54.7936 H       1  ZINC000450219577    0.1200
     46 H46       -11.6271   -0.4049   54.5553 H       1  ZINC000450219577    0.1200
     47 H47        -9.7802   -0.5243   56.1794 H       1  ZINC000450219577    0.1300
     48 H48        -9.8810   -2.1312   58.0424 H       1  ZINC000450219577    0.1300
     49 H49       -11.8304   -3.6161   58.2834 H       1  ZINC000450219577    0.1300
@<TRIPOS>BOND
     1     1     2    1
     2     1    28    1
     3     1    29    1
     4     1    30    1
     5     2     3    1
     6     2     4    1
     7     2     5    1
     8     3    31    1
     9     3    32    1
    10     3    33    1
    11     4    34    1
    12     4    35    1
    13     4    36    1
    14     5     6    1
    15     6     7    2
    16     6     8    1
    17     8     9    1
    18     8    10    1
    19     8    22    1
    20    10    11   am
    21    10    37    1
    22    11    12    2
    23    11    13    1
    24    13    21   ar
    25    13    14   ar
    26    14    15   ar
    27    14    38    1
    28    15    16   ar
    29    16    17    1
    30    16    20   ar
    31    17    19    1
    32    17    18    1
    33    17    39    1
    34    18    19    1
    35    18    40    1
    36    18    41    1
    37    19    42    1
    38    19    43    1
    39    20    21   ar
    40    21    44    1
    41    22    27   ar
    42    22    23   ar
    43    23    24   ar
    44    23    45    1
    45    24    25   ar
    46    24    46    1
    47    25    26   ar
    48    25    47    1
    49    26    27   ar
    50    26    48    1
    51    27    49    1
@<TRIPOS>SUBSTRUCTURE
     1 ZINC000450219577        1 TEMP              0 ****  ****    0 ROOT


##########                                Name:    ZINC000545381384
##########                DOCK_Rotatable_Bonds:                   6
##########                         Heavy_Atoms:                  30
##########                    Molecular_Weight:             405.543
##########                DOCK_Rotatable_Bonds:                   6
##########                       Formal_Charge:                0.05
##########                     HBond_Acceptors:                   6
##########                        HBond_Donors:                   1
##########                         Heavy_Atoms:                  30
##########                          Grid_Score:          -29.243757
##########                     Grid_vdw_energy:          -28.577978
##########                      Grid_es_energy:           -0.665779
##########           Internal_energy_repulsive:           15.467808

@<TRIPOS>MOLECULE
ZINC000545381384
 61 64 1 0 0
SMALL
USER_CHARGES


@<TRIPOS>ATOM
      1 C1         -5.7946    3.0608   56.6329 C.3     1  ZINC000545381384   -0.2000
      2 C2         -5.3993    4.2254   55.7227 C.3     1  ZINC000545381384    0.0500
      3 N3         -4.4527    3.7514   54.7042 N.3     1  ZINC000545381384   -0.5300
      4 C4         -3.1764    4.4784   54.7915 C.3     1  ZINC000545381384    0.0500
      5 C5         -2.1239    3.7121   53.9909 C.3     1  ZINC000545381384   -0.0700
      6 C6         -2.6463    3.4140   52.6060 C.ar    1  ZINC000545381384    0.1800
      7 C7         -4.0037    3.4923   52.3181 C.ar    1  ZINC000545381384   -0.0800
      8 C8         -5.0197    3.8826   53.3583 C.3     1  ZINC000545381384    0.0900
      9 C9         -4.4530    3.2064   51.0312 C.ar    1  ZINC000545381384   -0.0700
     10 C10        -5.8910    3.2776   50.6950 C.2     1  ZINC000545381384    0.5800
     11 O11        -6.5374    2.2557   50.5704 O.2     1  ZINC000545381384   -0.4800
     12 N12        -6.4850    4.4756   50.5265 N.am    1  ZINC000545381384   -0.6400
     13 C13        -7.8406    4.5428   50.2112 C.2     1  ZINC000545381384    0.3000
     14 C14        -8.3714    4.6978   48.9669 C.2     1  ZINC000545381384   -0.2700
     15 C15        -9.7628    4.7143   49.0936 C.2     1  ZINC000545381384    0.1000
     16 C16       -10.7486    4.8658   47.9639 C.3     1  ZINC000545381384   -0.0300
     17 C17       -11.0705    6.3481   47.7632 C.3     1  ZINC000545381384   -0.0600
     18 C18        -9.7862    7.1076   47.4248 C.3     1  ZINC000545381384   -0.1500
     19 C19       -12.0713    6.5019   46.6163 C.3     1  ZINC000545381384   -0.1400
     20 C20       -11.6759    6.9169   49.0481 C.3     1  ZINC000545381384   -0.1400
     21 N21       -10.0649    4.5755   50.3590 N.2     1  ZINC000545381384   -0.2700
     22 N22        -8.8744    4.4599   51.0881 N.pl3   1  ZINC000545381384   -0.3900
     23 C23        -8.7641    4.2888   52.5389 C.3     1  ZINC000545381384    0.1000
     24 C24        -3.4939    2.8460   50.0534 C.ar    1  ZINC000545381384   -0.0700
     25 C25        -3.8656    2.5452   48.7369 C.ar    1  ZINC000545381384   -0.1100
     26 C26        -2.9092    2.2047   47.8279 C.ar    1  ZINC000545381384   -0.1000
     27 C27        -1.5651    2.1515   48.1915 C.ar    1  ZINC000545381384   -0.1000
     28 C28        -1.1696    2.4365   49.4618 C.ar    1  ZINC000545381384   -0.0900
     29 C29        -2.1285    2.7926   50.4283 C.ar    1  ZINC000545381384    0.1400
     30 N30        -1.7720    3.0767   51.6804 N.ar    1  ZINC000545381384   -0.4600
     31 H31        -6.2328    2.2633   56.0329 H       1  ZINC000545381384    0.0600
     32 H32        -4.9099    2.6847   57.1466 H       1  ZINC000545381384    0.0600
     33 H33        -6.5227    3.4047   57.3675 H       1  ZINC000545381384    0.0700
     34 H34        -6.2890    4.6233   55.2346 H       1  ZINC000545381384    0.0900
     35 H35        -4.9304    5.0089   56.3180 H       1  ZINC000545381384    0.0800
     36 H36        -3.2959    5.4789   54.3754 H       1  ZINC000545381384    0.0500
     37 H37        -2.8650    4.5474   55.8337 H       1  ZINC000545381384    0.0900
     38 H38        -1.2184    4.3141   53.9144 H       1  ZINC000545381384    0.1000
     39 H39        -1.8927    2.7763   54.4998 H       1  ZINC000545381384    0.1000
     40 H40        -5.8922    3.2352   53.2703 H       1  ZINC000545381384    0.0900
     41 H41        -5.3240    4.9164   53.1945 H       1  ZINC000545381384    0.0700
     42 H42        -5.9690    5.2910   50.6247 H       1  ZINC000545381384    0.4100
     43 H43        -7.8156    4.7917   48.0457 H       1  ZINC000545381384    0.1700
     44 H44       -10.3172    4.4606   47.0486 H       1  ZINC000545381384    0.0800
     45 H45       -11.6635    4.3247   48.2050 H       1  ZINC000545381384    0.0800
     46 H46        -9.3549    6.7023   46.5094 H       1  ZINC000545381384    0.0500
     47 H47       -10.0156    8.1636   47.2818 H       1  ZINC000545381384    0.0500
     48 H48        -9.0731    6.9981   48.2419 H       1  ZINC000545381384    0.0800
     49 H49       -12.9863    5.9607   46.8574 H       1  ZINC000545381384    0.0600
     50 H50       -12.3007    7.5578   46.4733 H       1  ZINC000545381384    0.0600
     51 H51       -11.6401    6.0965   45.7010 H       1  ZINC000545381384    0.0600
     52 H52       -10.9628    6.8074   49.8652 H       1  ZINC000545381384    0.0500
     53 H53       -11.9052    7.9729   48.9051 H       1  ZINC000545381384    0.0500
     54 H54       -12.5908    6.3757   49.2892 H       1  ZINC000545381384    0.0500
     55 H55        -8.7637    3.2258   52.7805 H       1  ZINC000545381384    0.0800
     56 H56        -7.8361    4.7410   52.8886 H       1  ZINC000545381384    0.0800
     57 H57        -9.6103    4.7721   53.0271 H       1  ZINC000545381384    0.1000
     58 H58        -4.9044    2.5825   48.4439 H       1  ZINC000545381384    0.1300
     59 H59        -3.1967    1.9729   46.8130 H       1  ZINC000545381384    0.1300
     60 H60        -0.8254    1.8793   47.4532 H       1  ZINC000545381384    0.1400
     61 H61        -0.1238    2.3895   49.7272 H       1  ZINC000545381384    0.1400
@<TRIPOS>BOND
     1     1     2    1
     2     1    31    1
     3     1    32    1
     4     1    33    1
     5     2     3    1
     6     2    34    1
     7     2    35    1
     8     3     8    1
     9     3     4    1
    10     4     5    1
    11     4    36    1
    12     4    37    1
    13     5     6    1
    14     5    38    1
    15     5    39    1
    16     6    30   ar
    17     6     7   ar
    18     7     8    1
    19     7     9   ar
    20     8    40    1
    21     8    41    1
    22     9    10    1
    23     9    24   ar
    24    10    11    2
    25    10    12   am
    26    12    13    1
    27    12    42    1
    28    13    22    1
    29    13    14    2
    30    14    15    1
    31    14    43    1
    32    15    16    1
    33    15    21    2
    34    16    17    1
    35    16    44    1
    36    16    45    1
    37    17    18    1
    38    17    19    1
    39    17    20    1
    40    18    46    1
    41    18    47    1
    42    18    48    1
    43    19    49    1
    44    19    50    1
    45    19    51    1
    46    20    52    1
    47    20    53    1
    48    20    54    1
    49    21    22    1
    50    22    23    1
    51    23    55    1
    52    23    56    1
    53    23    57    1
    54    24    29   ar
    55    24    25   ar
    56    25    26   ar
    57    25    58    1
    58    26    27   ar
    59    26    59    1
    60    27    28   ar
    61    27    60    1
    62    28    29   ar
    63    28    61    1
    64    29    30   ar
@<TRIPOS>SUBSTRUCTURE
     1 ZINC000545381384        1 TEMP              0 ****  ****    0 ROOT


##########                                Name:    ZINC000581017854
##########                DOCK_Rotatable_Bonds:                   6
##########                         Heavy_Atoms:                  24
##########                    Molecular_Weight:             330.334
##########                DOCK_Rotatable_Bonds:                   6
##########                       Formal_Charge:           0.0099998
##########                     HBond_Acceptors:                   6
##########                        HBond_Donors:                   2
##########                         Heavy_Atoms:                  24
##########                          Grid_Score:          -29.235025
##########                     Grid_vdw_energy:          -27.500267
##########                      Grid_es_energy:           -1.734758
##########           Internal_energy_repulsive:            7.934888

@<TRIPOS>MOLECULE
ZINC000581017854
 40 42 1 0 0
SMALL
USER_CHARGES


@<TRIPOS>ATOM
      1 C1         -1.8397    3.8538   53.5040 C.3     1  ZINC000581017854   -0.1600
      2 C2         -1.9923    3.3890   52.0543 C.3     1  ZINC000581017854    0.1500
      3 H3         -2.2422    4.2422   51.4236 H       1  ZINC000581017854    0.1100
      4 C4         -0.6777    2.7691   51.5764 C.3     1  ZINC000581017854    0.0500
      5 O5         -0.4815    3.0751   50.1943 O.3     1  ZINC000581017854   -0.3100
      6 C6          0.4327    2.3284   49.5209 C.ar    1  ZINC000581017854    0.1600
      7 C7          1.3108    1.5111   50.2176 C.ar    1  ZINC000581017854   -0.2200
      8 C8          2.2399    0.7522   49.5318 C.ar    1  ZINC000581017854   -0.0500
      9 C9          2.2961    0.8066   48.1520 C.ar    1  ZINC000581017854   -0.1900
     10 C10         1.4212    1.6219   47.4530 C.ar    1  ZINC000581017854    0.1400
     11 F11         1.4777    1.6737   46.1042 F       1  ZINC000581017854   -0.1300
     12 C12         0.4851    2.3781   48.1356 C.ar    1  ZINC000581017854   -0.1900
     13 N13        -3.0615    2.3908   51.9715 N.am    1  ZINC000581017854   -0.7300
     14 C14        -3.8910    2.3783   50.9094 C.2     1  ZINC000581017854    0.5900
     15 O15        -3.7528    3.1969   50.0199 O.2     1  ZINC000581017854   -0.5400
     16 C16        -4.9620    1.3762   50.8255 C.2     1  ZINC000581017854   -0.2200
     17 C17        -5.0817    0.3856   49.8964 C.2     1  ZINC000581017854    0.1100
     18 N18        -6.1986   -0.3413   50.1426 N.pl3   1  ZINC000581017854   -0.5700
     19 C19        -6.8579    0.1493   51.2508 C.ar    1  ZINC000581017854    0.1100
     20 C20        -8.0243   -0.2270   51.9080 C.ar    1  ZINC000581017854   -0.1600
     21 C21        -8.4444    0.4740   53.0201 C.ar    1  ZINC000581017854    0.1200
     22 F22        -9.5778    0.1046   53.6558 F       1  ZINC000581017854   -0.1400
     23 C23        -7.7117    1.5558   53.4919 C.ar    1  ZINC000581017854   -0.1700
     24 C24        -6.5539    1.9423   52.8529 C.ar    1  ZINC000581017854   -0.0300
     25 C25        -6.1162    1.2396   51.7334 C.ar    1  ZINC000581017854   -0.0700
     26 H26        -1.0443    4.5965   53.5656 H       1  ZINC000581017854    0.0700
     27 H27        -2.7763    4.2953   53.8444 H       1  ZINC000581017854    0.0700
     28 H28        -1.5899    3.0006   54.1347 H       1  ZINC000581017854    0.0700
     29 H29         0.1487    3.1756   52.1594 H       1  ZINC000581017854    0.0700
     30 H30        -0.7173    1.6877   51.7070 H       1  ZINC000581017854    0.0800
     31 H31         1.2684    1.4681   51.2959 H       1  ZINC000581017854    0.1400
     32 H32         2.9233    0.1161   50.0748 H       1  ZINC000581017854    0.1400
     33 H33         3.0233    0.2129   47.6180 H       1  ZINC000581017854    0.1400
     34 H34        -0.1975    3.0137   47.5912 H       1  ZINC000581017854    0.1400
     35 H35        -3.1724    1.7389   52.6811 H       1  ZINC000581017854    0.4000
     36 H36        -4.3904    0.2070   49.0861 H       1  ZINC000581017854    0.1800
     37 H37        -6.4933   -1.0994   49.6139 H       1  ZINC000581017854    0.4200
     38 H38        -8.6007   -1.0665   51.5485 H       1  ZINC000581017854    0.1400
     39 H39        -8.0514    2.0964   54.3630 H       1  ZINC000581017854    0.1400
     40 H40        -5.9862    2.7839   53.2213 H       1  ZINC000581017854    0.1500
@<TRIPOS>BOND
     1     1     2    1
     2     1    26    1
     3     1    27    1
     4     1    28    1
     5     2     3    1
     6     2     4    1
     7     2    13    1
     8     4     5    1
     9     4    29    1
    10     4    30    1
    11     5     6    1
    12     6    12   ar
    13     6     7   ar
    14     7     8   ar
    15     7    31    1
    16     8     9   ar
    17     8    32    1
    18     9    10   ar
    19     9    33    1
    20    10    11    1
    21    10    12   ar
    22    12    34    1
    23    13    14   am
    24    13    35    1
    25    14    15    2
    26    14    16    1
    27    16    25    1
    28    16    17    2
    29    17    18    1
    30    17    36    1
    31    18    19    1
    32    18    37    1
    33    19    25   ar
    34    19    20   ar
    35    20    21   ar
    36    20    38    1
    37    21    22    1
    38    21    23   ar
    39    23    24   ar
    40    23    39    1
    41    24    25   ar
    42    24    40    1
@<TRIPOS>SUBSTRUCTURE
     1 ZINC000581017854        1 TEMP              0 ****  ****    0 ROOT


##########                                Name:    ZINC001011267435
##########                DOCK_Rotatable_Bonds:                   7
##########                         Heavy_Atoms:                  24
##########                    Molecular_Weight:             331.458
##########                DOCK_Rotatable_Bonds:                   7
##########                       Formal_Charge:        -4.47035e-08
##########                     HBond_Acceptors:                   5
##########                        HBond_Donors:                   0
##########                         Heavy_Atoms:                  24
##########                          Grid_Score:          -29.220545
##########                     Grid_vdw_energy:          -28.174404
##########                      Grid_es_energy:           -1.046140
##########           Internal_energy_repulsive:           41.155785

@<TRIPOS>MOLECULE
ZINC001011267435
 53 54 1 0 0
SMALL
USER_CHARGES


@<TRIPOS>ATOM
      1 C1         -6.7613    0.9388   53.1575 C.3     1  ZINC001011267435   -0.1500
      2 C2         -7.5505    0.2648   52.0334 C.3     1  ZINC001011267435   -0.1200
      3 C3         -6.5979   -0.1149   50.8980 C.3     1  ZINC001011267435   -0.0700
      4 C4         -5.9875    1.1339   50.3157 C.ar    1  ZINC001011267435    0.1300
      5 C5         -4.6704    1.1181   49.8997 C.ar    1  ZINC001011267435   -0.1200
      6 C6         -4.1156    2.2833   49.3610 C.ar    1  ZINC001011267435   -0.0800
      7 C7         -2.7077    2.3139   48.9010 C.2     1  ZINC001011267435    0.5600
      8 O8         -2.3909    1.7435   47.8758 O.2     1  ZINC001011267435   -0.5200
      9 N9         -1.7782    2.9744   49.6195 N.am    1  ZINC001011267435   -0.6100
     10 C10        -2.1457    3.6637   50.8643 C.3     1  ZINC001011267435    0.0700
     11 C11        -1.2529    3.1402   51.9962 C.3     1  ZINC001011267435    0.1000
     12 N12         0.1464    3.1837   51.5491 N.am    1  ZINC001011267435   -0.6200
     13 C13         1.0761    3.8435   52.2679 C.2     1  ZINC001011267435    0.5300
     14 O14         2.2277    3.8725   51.8887 O.2     1  ZINC001011267435   -0.5300
     15 C15         0.6847    4.5453   53.5427 C.3     1  ZINC001011267435   -0.1100
     16 H16        -0.0567    3.9480   54.0735 H       1  ZINC001011267435    0.0900
     17 C17         0.0916    5.9157   53.2093 C.3     1  ZINC001011267435   -0.1500
     18 C18         1.9211    4.7259   54.4258 C.3     1  ZINC001011267435   -0.0800
     19 C19         1.5161    5.3980   55.7392 C.3     1  ZINC001011267435   -0.1500
     20 C20         2.5401    3.3585   54.7224 C.3     1  ZINC001011267435   -0.1500
     21 C21         0.5139    2.4945   50.3041 C.3     1  ZINC001011267435    0.0900
     22 C22        -0.3778    3.0132   49.1752 C.3     1  ZINC001011267435    0.1000
     23 C23        -4.9265    3.4182   49.2683 C.ar    1  ZINC001011267435   -0.1600
     24 C24        -6.2340    3.3451   49.7089 C.ar    1  ZINC001011267435    0.1100
     25 N25        -6.7191    2.2249   50.2055 N.ar    1  ZINC001011267435   -0.4600
     26 H26        -6.0043    0.2504   53.5332 H       1  ZINC001011267435    0.0600
     27 H27        -6.2774    1.8369   52.7737 H       1  ZINC001011267435    0.0500
     28 H28        -7.4401    1.2092   53.9664 H       1  ZINC001011267435    0.0600
     29 H29        -8.0345   -0.6333   52.4171 H       1  ZINC001011267435    0.0700
     30 H30        -8.3076    0.9531   51.6576 H       1  ZINC001011267435    0.0600
     31 H31        -5.8083   -0.7583   51.2861 H       1  ZINC001011267435    0.0800
     32 H32        -7.1502   -0.6450   50.1222 H       1  ZINC001011267435    0.0900
     33 H33        -4.0780    0.2196   49.9893 H       1  ZINC001011267435    0.1400
     34 H34        -1.9954    4.7369   50.7465 H       1  ZINC001011267435    0.0800
     35 H35        -3.1906    3.4618   51.0994 H       1  ZINC001011267435    0.1100
     36 H36        -1.3747    3.7685   52.8786 H       1  ZINC001011267435    0.1100
     37 H37        -1.5289    2.1130   52.2346 H       1  ZINC001011267435    0.0700
     38 H38        -0.1147    6.4568   54.1326 H       1  ZINC001011267435    0.0800
     39 H39         0.8020    6.4822   52.6071 H       1  ZINC001011267435    0.0600
     40 H40        -0.8349    5.7844   52.6503 H       1  ZINC001011267435    0.0600
     41 H41         2.6494    5.3498   53.9078 H       1  ZINC001011267435    0.0800
     42 H42         2.3968    5.5267   56.3683 H       1  ZINC001011267435    0.0600
     43 H43         1.0750    6.3722   55.5279 H       1  ZINC001011267435    0.0600
     44 H44         0.7876    4.7741   56.2571 H       1  ZINC001011267435    0.0600
     45 H45         2.8286    2.8797   53.7867 H       1  ZINC001011267435    0.0600
     46 H46         3.4209    3.4872   55.3514 H       1  ZINC001011267435    0.0600
     47 H47         1.8116    2.7345   55.2403 H       1  ZINC001011267435    0.0500
     48 H48         1.5588    2.6964   50.0690 H       1  ZINC001011267435    0.1000
     49 H49         0.3636    1.4213   50.4221 H       1  ZINC001011267435    0.0800
     50 H50        -0.2550    2.3841   48.2936 H       1  ZINC001011267435    0.1100
     51 H51        -0.1039    4.0407   48.9354 H       1  ZINC001011267435    0.0800
     52 H52        -4.5367    4.3385   48.8588 H       1  ZINC001011267435    0.1500
     53 H53        -6.8683    4.2168   49.6418 H       1  ZINC001011267435    0.1700
@<TRIPOS>BOND
     1     1     2    1
     2     1    26    1
     3     1    27    1
     4     1    28    1
     5     2     3    1
     6     2    29    1
     7     2    30    1
     8     3     4    1
     9     3    31    1
    10     3    32    1
    11     4    25   ar
    12     4     5   ar
    13     5     6   ar
    14     5    33    1
    15     6     7    1
    16     6    23   ar
    17     7     8    2
    18     7     9   am
    19     9    22    1
    20     9    10    1
    21    10    11    1
    22    10    34    1
    23    10    35    1
    24    11    12    1
    25    11    36    1
    26    11    37    1
    27    12    13   am
    28    12    21    1
    29    13    14    2
    30    13    15    1
    31    15    16    1
    32    15    17    1
    33    15    18    1
    34    17    38    1
    35    17    39    1
    36    17    40    1
    37    18    19    1
    38    18    20    1
    39    18    41    1
    40    19    42    1
    41    19    43    1
    42    19    44    1
    43    20    45    1
    44    20    46    1
    45    20    47    1
    46    21    22    1
    47    21    48    1
    48    21    49    1
    49    22    50    1
    50    22    51    1
    51    23    24   ar
    52    23    52    1
    53    24    25   ar
    54    24    53    1
@<TRIPOS>SUBSTRUCTURE
     1 ZINC001011267435        1 TEMP              0 ****  ****    0 ROOT


##########                                Name:    ZINC000549659617
##########                DOCK_Rotatable_Bonds:                   9
##########                         Heavy_Atoms:                  28
##########                    Molecular_Weight:              418.48
##########                DOCK_Rotatable_Bonds:                   9
##########                       Formal_Charge:          0.00999956
##########                     HBond_Acceptors:                   9
##########                        HBond_Donors:                   1
##########                         Heavy_Atoms:                  28
##########                          Grid_Score:          -29.217522
##########                     Grid_vdw_energy:          -28.763422
##########                      Grid_es_energy:           -0.454100
##########           Internal_energy_repulsive:           18.845591

@<TRIPOS>MOLECULE
ZINC000549659617
 53 55 1 0 0
SMALL
USER_CHARGES


@<TRIPOS>ATOM
      1 C1         -1.7233    5.0317   52.3557 C.3     1  ZINC000549659617   -0.1500
      2 C2         -2.0405    4.4995   50.9567 C.3     1  ZINC000549659617   -0.1500
      3 C3         -2.2462    2.9848   51.0220 C.3     1  ZINC000549659617    0.1100
      4 N4         -2.6903    2.4955   49.7144 N.am    1  ZINC000549659617   -0.6100
      5 C5         -1.8143    2.4102   48.6937 C.2     1  ZINC000549659617    0.7100
      6 O6         -2.1824    2.0028   47.6090 O.2     1  ZINC000549659617   -0.5700
      7 N7         -0.5300    2.7765   48.8756 N.am    1  ZINC000549659617   -0.7400
      8 C8          0.4226    2.6821   47.7665 C.3     1  ZINC000549659617    0.2300
      9 H9         -0.1025    2.8295   46.8228 H       1  ZINC000549659617    0.1100
     10 C10         1.4821    3.7424   47.9227 C.ar    1  ZINC000549659617   -0.0900
     11 C11         1.9885    4.0339   49.1753 C.ar    1  ZINC000549659617   -0.0800
     12 C12         2.9605    5.0067   49.3187 C.ar    1  ZINC000549659617   -0.1100
     13 C13         3.4260    5.6873   48.2093 C.ar    1  ZINC000549659617   -0.0700
     14 C14         2.9200    5.3950   46.9563 C.ar    1  ZINC000549659617   -0.1800
     15 C15         3.4271    6.1374   45.7470 C.3     1  ZINC000549659617    0.5100
     16 F16         3.8196    7.4268   46.1220 F       1  ZINC000549659617   -0.1800
     17 F17         4.5225    5.4552   45.2064 F       1  ZINC000549659617   -0.1700
     18 F18         2.4102    6.2194   44.7897 F       1  ZINC000549659617   -0.1700
     19 C19         1.9514    4.4196   46.8125 C.ar    1  ZINC000549659617   -0.0500
     20 C20         1.0791    1.3001   47.7745 C.3     1  ZINC000549659617   -0.1700
     21 C21         0.7034    0.3330   46.6501 C.3     1  ZINC000549659617   -0.1700
     22 C22         2.0853    0.9895   46.6644 C.3     1  ZINC000549659617   -0.1800
     23 C23        -4.0867    2.0991   49.5163 C.3     1  ZINC000549659617    0.1700
     24 H24        -4.2494    1.8131   48.4772 H       1  ZINC000549659617    0.1100
     25 C25        -5.0229    3.2595   49.8963 C.3     1  ZINC000549659617   -0.1400
     26 C26        -6.4619    2.7177   50.0075 C.3     1  ZINC000549659617   -0.5900
     27 S27        -6.2736    0.9591   50.4741 S.o2    1  ZINC000549659617    2.3900
     28 O28        -6.7353    0.7729   51.8051 O.2     1  ZINC000549659617   -0.9300
     29 O29        -6.7770    0.1381   49.4291 O.2     1  ZINC000549659617   -0.9400
     30 C30        -4.4410    0.9165   50.4542 C.3     1  ZINC000549659617   -0.6100
     31 H31        -1.5767    6.1108   52.3092 H       1  ZINC000549659617    0.0600
     32 H32        -2.5520    4.8061   53.0268 H       1  ZINC000549659617    0.0600
     33 H33        -0.8152    4.5574   52.7276 H       1  ZINC000549659617    0.0600
     34 H34        -2.9487    4.9738   50.5848 H       1  ZINC000549659617    0.0700
     35 H35        -1.2117    4.7251   50.2856 H       1  ZINC000549659617    0.0700
     36 H36        -1.3067    2.5017   51.2907 H       1  ZINC000549659617    0.0800
     37 H37        -3.0018    2.7526   51.7725 H       1  ZINC000549659617    0.0900
     38 H38        -0.2365    3.1027   49.7407 H       1  ZINC000549659617    0.4000
     39 H39         1.6248    3.5022   50.0420 H       1  ZINC000549659617    0.1300
     40 H40         3.3557    5.2350   50.2974 H       1  ZINC000549659617    0.1400
     41 H41         4.1847    6.4476   48.3214 H       1  ZINC000549659617    0.1400
     42 H42         1.5562    4.1913   45.8338 H       1  ZINC000549659617    0.1400
     43 H43         1.2707    0.8763   48.7603 H       1  ZINC000549659617    0.1100
     44 H44         0.6474   -0.7275   46.8961 H       1  ZINC000549659617    0.0900
     45 H45        -0.0116    0.6812   45.9047 H       1  ZINC000549659617    0.0900
     46 H46         2.2793    1.7698   45.9285 H       1  ZINC000549659617    0.1200
     47 H47         2.9384    0.3612   46.9198 H       1  ZINC000549659617    0.0900
     48 H48        -4.7150    3.6806   50.8533 H       1  ZINC000549659617    0.1100
     49 H49        -4.9805    4.0315   49.1278 H       1  ZINC000549659617    0.0900
     50 H50        -7.0111    3.2573   50.7792 H       1  ZINC000549659617    0.1400
     51 H51        -6.9734    2.8022   49.0487 H       1  ZINC000549659617    0.1400
     52 H52        -4.0803   -0.0263   50.0431 H       1  ZINC000549659617    0.1400
     53 H53        -4.0394    1.0826   51.4539 H       1  ZINC000549659617    0.1600
@<TRIPOS>BOND
     1     1     2    1
     2     1    31    1
     3     1    32    1
     4     1    33    1
     5     2     3    1
     6     2    34    1
     7     2    35    1
     8     3     4    1
     9     3    36    1
    10     3    37    1
    11     4     5   am
    12     4    23    1
    13     5     6    2
    14     5     7   am
    15     7     8    1
    16     7    38    1
    17     8     9    1
    18     8    10    1
    19     8    20    1
    20    10    19   ar
    21    10    11   ar
    22    11    12   ar
    23    11    39    1
    24    12    13   ar
    25    12    40    1
    26    13    14   ar
    27    13    41    1
    28    14    15    1
    29    14    19   ar
    30    15    16    1
    31    15    17    1
    32    15    18    1
    33    19    42    1
    34    20    22    1
    35    20    21    1
    36    20    43    1
    37    21    22    1
    38    21    44    1
    39    21    45    1
    40    22    46    1
    41    22    47    1
    42    23    24    1
    43    23    30    1
    44    23    25    1
    45    25    26    1
    46    25    48    1
    47    25    49    1
    48    26    27    1
    49    26    50    1
    50    26    51    1
    51    27    28    2
    52    27    29    2
    53    27    30    1
    54    30    52    1
    55    30    53    1
@<TRIPOS>SUBSTRUCTURE
     1 ZINC000549659617        1 TEMP              0 ****  ****    0 ROOT


##########                                Name:    ZINC000986832075
##########                DOCK_Rotatable_Bonds:                   7
##########                         Heavy_Atoms:                  25
##########                    Molecular_Weight:             347.433
##########                DOCK_Rotatable_Bonds:                   7
##########                       Formal_Charge:          -0.0200006
##########                     HBond_Acceptors:                   6
##########                        HBond_Donors:                   1
##########                         Heavy_Atoms:                  25
##########                          Grid_Score:          -29.180050
##########                     Grid_vdw_energy:          -27.286427
##########                      Grid_es_energy:           -1.893624
##########           Internal_energy_repulsive:           38.451973

@<TRIPOS>MOLECULE
ZINC000986832075
 51 53 1 0 0
SMALL
USER_CHARGES


@<TRIPOS>ATOM
      1 C1          1.9727    4.6440   50.8429 C.3     1  ZINC000986832075   -0.1700
      2 C2          1.0765    3.5888   51.4944 C.3     1  ZINC000986832075    0.1500
      3 H3          1.4560    2.5945   51.2592 H       1  ZINC000986832075    0.0900
      4 N4          1.0740    3.7796   52.9469 N.am    1  ZINC000986832075   -0.7200
      5 C5          2.0978    3.3141   53.6895 C.2     1  ZINC000986832075    0.5600
      6 O6          3.0238    2.7371   53.1541 O.2     1  ZINC000986832075   -0.5100
      7 C7          2.0943    3.5053   55.1571 C.ar    1  ZINC000986832075   -0.1300
      8 C8          1.0045    4.0986   55.8024 C.ar    1  ZINC000986832075   -0.1100
      9 C9          1.0431    4.2578   57.1736 C.ar    1  ZINC000986832075    0.0900
     10 N10         2.0871    3.8604   57.8738 N.ar    1  ZINC000986832075   -0.4400
     11 C11         3.1355    3.2970   57.3088 C.ar    1  ZINC000986832075    0.0700
     12 C12         3.1802    3.0921   55.9398 C.ar    1  ZINC000986832075    0.1100
     13 F13         4.2585    2.5137   55.3672 F       1  ZINC000986832075   -0.1000
     14 C14        -0.3498    3.7300   50.9590 C.3     1  ZINC000986832075   -0.1000
     15 C15        -0.4719    2.9812   49.6299 C.3     1  ZINC000986832075   -0.1300
     16 C16        -1.8912    3.1535   49.0797 C.3     1  ZINC000986832075    0.1100
     17 N17        -2.8513    2.7231   50.1052 N.am    1  ZINC000986832075   -0.6100
     18 C18        -3.7940    1.8030   49.8203 C.2     1  ZINC000986832075    0.5200
     19 O19        -3.8555    1.3219   48.7088 O.2     1  ZINC000986832075   -0.5300
     20 C20        -4.7716    1.3719   50.8831 C.3     1  ZINC000986832075   -0.0800
     21 H21        -4.2341    1.1632   51.8081 H       1  ZINC000986832075    0.0900
     22 C22        -5.5023    0.1092   50.4219 C.3     1  ZINC000986832075   -0.1400
     23 C23        -5.7879    2.4897   51.1248 C.3     1  ZINC000986832075   -0.1400
     24 C24        -5.7739    3.6778   50.1607 C.3     1  ZINC000986832075   -0.1800
     25 C25        -6.9116    2.6565   50.0999 C.3     1  ZINC000986832075   -0.1700
     26 C26        -2.7640    3.3147   51.4473 C.3     1  ZINC000986832075    0.1000
     27 C27        -1.3349    3.1404   51.9709 C.3     1  ZINC000986832075   -0.1300
     28 H28         2.9888    4.5433   51.2243 H       1  ZINC000986832075    0.0600
     29 H29         1.9745    4.5019   49.7621 H       1  ZINC000986832075    0.0700
     30 H30         1.5931    5.6383   51.0779 H       1  ZINC000986832075    0.0600
     31 H31         0.3355    4.2412   53.3742 H       1  ZINC000986832075    0.4000
     32 H32         0.1455    4.4276   55.2366 H       1  ZINC000986832075    0.1500
     33 H33         0.2057    4.7149   57.6798 H       1  ZINC000986832075    0.1700
     34 H34         3.9691    2.9871   57.9217 H       1  ZINC000986832075    0.1800
     35 H35        -0.5766    4.7847   50.8034 H       1  ZINC000986832075    0.0800
     36 H36         0.2463    3.3859   48.9169 H       1  ZINC000986832075    0.0700
     37 H37        -0.2696    1.9220   49.7891 H       1  ZINC000986832075    0.0800
     38 H38        -2.0634    4.2015   48.8349 H       1  ZINC000986832075    0.0700
     39 H39        -2.0132    2.5423   48.1855 H       1  ZINC000986832075    0.0900
     40 H40        -5.9666    0.2916   49.4527 H       1  ZINC000986832075    0.0600
     41 H41        -4.7902   -0.7114   50.3350 H       1  ZINC000986832075    0.0600
     42 H42        -6.2708   -0.1521   51.1495 H       1  ZINC000986832075    0.0700
     43 H43        -6.0253    2.6915   52.1693 H       1  ZINC000986832075    0.1100
     44 H44        -6.0020    4.6615   50.5711 H       1  ZINC000986832075    0.1000
     45 H45        -5.0407    3.6631   49.3544 H       1  ZINC000986832075    0.0900
     46 H46        -6.9268    1.9700   49.2535 H       1  ZINC000986832075    0.0900
     47 H47        -7.8882    2.9685   50.4701 H       1  ZINC000986832075    0.1000
     48 H48        -3.0074    4.3758   51.3955 H       1  ZINC000986832075    0.0700
     49 H49        -3.4620    2.8097   52.1153 H       1  ZINC000986832075    0.0900
     50 H50        -1.1245    2.0798   52.1081 H       1  ZINC000986832075    0.0800
     51 H51        -1.2310    3.6588   52.9241 H       1  ZINC000986832075    0.0800
@<TRIPOS>BOND
     1     1     2    1
     2     1    28    1
     3     1    29    1
     4     1    30    1
     5     2     3    1
     6     2     4    1
     7     2    14    1
     8     4     5   am
     9     4    31    1
    10     5     6    2
    11     5     7    1
    12     7    12   ar
    13     7     8   ar
    14     8     9   ar
    15     8    32    1
    16     9    10   ar
    17     9    33    1
    18    10    11   ar
    19    11    12   ar
    20    11    34    1
    21    12    13    1
    22    14    27    1
    23    14    15    1
    24    14    35    1
    25    15    16    1
    26    15    36    1
    27    15    37    1
    28    16    17    1
    29    16    38    1
    30    16    39    1
    31    17    18   am
    32    17    26    1
    33    18    19    2
    34    18    20    1
    35    20    21    1
    36    20    22    1
    37    20    23    1
    38    22    40    1
    39    22    41    1
    40    22    42    1
    41    23    25    1
    42    23    24    1
    43    23    43    1
    44    24    25    1
    45    24    44    1
    46    24    45    1
    47    25    46    1
    48    25    47    1
    49    26    27    1
    50    26    48    1
    51    26    49    1
    52    27    50    1
    53    27    51    1
@<TRIPOS>SUBSTRUCTURE
     1 ZINC000986832075        1 TEMP              0 ****  ****    0 ROOT


##########                                Name:    ZINC001058772245
##########                DOCK_Rotatable_Bonds:                  11
##########                         Heavy_Atoms:                  22
##########                    Molecular_Weight:             335.375
##########                DOCK_Rotatable_Bonds:                  11
##########                       Formal_Charge:          0.00999964
##########                     HBond_Acceptors:                   9
##########                        HBond_Donors:                   2
##########                         Heavy_Atoms:                  22
##########                          Grid_Score:          -29.157623
##########                     Grid_vdw_energy:          -27.561245
##########                      Grid_es_energy:           -1.596378
##########           Internal_energy_repulsive:           65.121361

@<TRIPOS>MOLECULE
ZINC001058772245
 41 41 1 0 0
SMALL
USER_CHARGES


@<TRIPOS>ATOM
      1 C1          0.4770    2.0555   50.7089 C.3     1  ZINC001058772245   -0.1700
      2 C2          0.1973    2.9403   49.4925 C.3     1  ZINC001058772245   -0.1400
      3 C3          1.0099    2.4367   48.2980 C.3     1  ZINC001058772245   -0.1500
      4 C4         -1.2714    2.8868   49.1593 C.2     1  ZINC001058772245    0.5300
      5 O5         -1.6354    2.4365   48.0936 O.2     1  ZINC001058772245   -0.5200
      6 N6         -2.1804    3.3391   50.0457 N.am    1  ZINC001058772245   -0.5900
      7 C7         -1.7407    3.8829   51.3329 C.3     1  ZINC001058772245    0.0800
      8 C8         -2.2916    5.3001   51.5029 C.3     1  ZINC001058772245    0.0400
      9 O9         -1.5790    5.9661   52.5472 O.3     1  ZINC001058772245   -0.5700
     10 C10        -3.6082    3.2870   49.7218 C.3     1  ZINC001058772245    0.1100
     11 C11        -4.0648    1.8279   49.6625 C.3     1  ZINC001058772245    0.1000
     12 N12        -5.1387    1.6124   50.6353 N.am    1  ZINC001058772245   -0.7100
     13 C13        -5.8164    0.4475   50.6440 C.2     1  ZINC001058772245    0.6000
     14 O14        -5.5354   -0.4256   49.8451 O.2     1  ZINC001058772245   -0.5300
     15 C15        -6.8972    0.2315   51.6208 C.2     1  ZINC001058772245    0.0000
     16 C16        -6.9971    0.9241   52.7779 C.2     1  ZINC001058772245   -0.2200
     17 S17        -8.3784    0.3829   53.6271 S.3     1  ZINC001058772245    0.2300
     18 C18        -8.7426   -0.7361   52.3895 C.2     1  ZINC001058772245    0.0000
     19 N19        -7.8732   -0.6628   51.4440 N.2     1  ZINC001058772245   -0.4400
     20 C20         0.5962    4.3831   49.8088 C.3     1  ZINC001058772245    0.2900
     21 F21         1.3667    4.4086   50.9763 F       1  ZINC001058772245   -0.1900
     22 F22         1.3424    4.9043   48.7462 F       1  ZINC001058772245   -0.2000
     23 H23         1.4517    2.3086   51.1260 H       1  ZINC001058772245    0.0800
     24 H24        -0.2940    2.2189   51.4619 H       1  ZINC001058772245    0.0700
     25 H25         0.4723    1.0085   50.4055 H       1  ZINC001058772245    0.0900
     26 H26         0.5548    1.5270   47.9064 H       1  ZINC001058772245    0.0800
     27 H27         1.0234    3.2001   47.5200 H       1  ZINC001058772245    0.0700
     28 H28         2.0305    2.2243   48.6164 H       1  ZINC001058772245    0.0900
     29 H29        -2.1103    3.2501   52.1399 H       1  ZINC001058772245    0.0900
     30 H30        -0.6514    3.9104   51.3627 H       1  ZINC001058772245    0.1200
     31 H31        -2.1695    5.8516   50.5707 H       1  ZINC001058772245    0.0600
     32 H32        -3.3498    5.2502   51.7596 H       1  ZINC001058772245    0.0700
     33 H33        -1.6072    5.5067   53.3976 H       1  ZINC001058772245    0.3800
     34 H34        -4.1745    3.8140   50.4896 H       1  ZINC001058772245    0.1000
     35 H35        -3.7789    3.7607   48.7550 H       1  ZINC001058772245    0.0900
     36 H36        -4.4312    1.6022   48.6610 H       1  ZINC001058772245    0.0700
     37 H37        -3.2248    1.1745   49.8980 H       1  ZINC001058772245    0.0700
     38 H38        -5.3621    2.3082   51.2733 H       1  ZINC001058772245    0.4100
     39 H39        -6.3160    1.6932   53.1108 H       1  ZINC001058772245    0.1900
     40 H40        -9.5871   -1.4091   52.3977 H       1  ZINC001058772245    0.2100
     41 H41        -0.3010    4.9851   49.9523 H       1  ZINC001058772245    0.1200
@<TRIPOS>BOND
     1     1     2    1
     2     1    23    1
     3     1    24    1
     4     1    25    1
     5     2     3    1
     6     2     4    1
     7     2    20    1
     8     3    26    1
     9     3    27    1
    10     3    28    1
    11     4     5    2
    12     4     6   am
    13     6     7    1
    14     6    10    1
    15     7     8    1
    16     7    29    1
    17     7    30    1
    18     8     9    1
    19     8    31    1
    20     8    32    1
    21     9    33    1
    22    10    11    1
    23    10    34    1
    24    10    35    1
    25    11    12    1
    26    11    36    1
    27    11    37    1
    28    12    13   am
    29    12    38    1
    30    13    14    2
    31    13    15    1
    32    15    19    1
    33    15    16    2
    34    16    17    1
    35    16    39    1
    36    17    18    1
    37    18    19    2
    38    18    40    1
    39    20    21    1
    40    20    22    1
    41    20    41    1
@<TRIPOS>SUBSTRUCTURE
     1 ZINC001058772245        1 TEMP              0 ****  ****    0 ROOT


##########                                Name:    ZINC000543020509
##########                DOCK_Rotatable_Bonds:                   5
##########                         Heavy_Atoms:                  26
##########                    Molecular_Weight:              366.81
##########                DOCK_Rotatable_Bonds:                   5
##########                       Formal_Charge:               -0.02
##########                     HBond_Acceptors:                   8
##########                        HBond_Donors:                   1
##########                         Heavy_Atoms:                  26
##########                          Grid_Score:          -29.107378
##########                     Grid_vdw_energy:          -29.998827
##########                      Grid_es_energy:            0.891450
##########           Internal_energy_repulsive:           10.977778

@<TRIPOS>MOLECULE
ZINC000543020509
 41 43 1 0 0
SMALL
USER_CHARGES


@<TRIPOS>ATOM
      1 C1        -11.8142   -2.3674   59.6302 C.3     1  ZINC000543020509    0.0800
      2 N2        -11.1264   -1.7794   58.4780 N.pl3   1  ZINC000543020509   -0.6200
      3 C3        -11.6512   -1.9891   57.1264 C.3     1  ZINC000543020509    0.0900
      4 C4         -9.9744   -1.0216   58.6675 C.ar    1  ZINC000543020509    0.2500
      5 C5         -9.3650   -0.9489   59.9189 C.ar    1  ZINC000543020509   -0.2200
      6 C6         -8.2214   -0.1867   60.0706 C.ar    1  ZINC000543020509    0.1400
      7 N7         -7.7031    0.4679   59.0530 N.ar    1  ZINC000543020509   -0.5000
      8 C8         -8.2496    0.4277   57.8426 C.ar    1  ZINC000543020509    0.1100
      9 C9         -7.6264    1.1826   56.7308 C.2     1  ZINC000543020509    0.5900
     10 O10        -6.5571    1.7361   56.8963 O.2     1  ZINC000543020509   -0.5000
     11 N11        -8.2451    1.2557   55.5356 N.am    1  ZINC000543020509   -0.6200
     12 C12        -7.6555    1.9675   54.4847 C.2     1  ZINC000543020509    0.3200
     13 N13        -6.6762    1.5423   53.7212 N.2     1  ZINC000543020509   -0.3100
     14 N14        -6.3766    2.5476   52.7928 N.pl3   1  ZINC000543020509   -0.3300
     15 C15        -5.3934    2.4852   51.8023 C.ar    1  ZINC000543020509    0.2200
     16 C16        -4.3429    3.3909   51.8056 C.ar    1  ZINC000543020509   -0.1300
     17 C17        -3.3712    3.3281   50.8258 C.ar    1  ZINC000543020509   -0.0500
     18 C18        -3.4373    2.3628   49.8339 C.ar    1  ZINC000543020509   -0.0600
     19 Cl19       -2.2086    2.2965   48.6092 Cl      1  ZINC000543020509   -0.0500
     20 C20        -4.4753    1.4534   49.8157 C.ar    1  ZINC000543020509   -0.0400
     21 C21        -5.4610    1.5024   50.8034 C.ar    1  ZINC000543020509   -0.0200
     22 C22        -6.5408    0.5620   50.7904 C.1     1  ZINC000543020509    0.2500
     23 N23        -7.3974   -0.1842   50.7802 N.1     1  ZINC000543020509   -0.3800
     24 C24        -7.2116    3.5939   53.0255 C.2     1  ZINC000543020509    0.0700
     25 C25        -8.0137    3.2586   54.0609 C.2     1  ZINC000543020509   -0.2400
     26 C26        -9.3976   -0.3206   57.6085 C.ar    1  ZINC000543020509   -0.1800
     27 H27       -11.4119   -3.3614   59.8252 H       1  ZINC000543020509    0.0600
     28 H28       -11.6619   -1.7357   60.5054 H       1  ZINC000543020509    0.0700
     29 H29       -12.8806   -2.4423   59.4174 H       1  ZINC000543020509    0.0700
     30 H30       -12.5511   -2.6022   57.1771 H       1  ZINC000543020509    0.0800
     31 H31       -11.8928   -1.0259   56.6769 H       1  ZINC000543020509    0.0600
     32 H32       -10.9004   -2.4952   56.5196 H       1  ZINC000543020509    0.0600
     33 H33        -9.7817   -1.4816   60.7609 H       1  ZINC000543020509    0.1400
     34 H34        -7.7462   -0.1275   61.0387 H       1  ZINC000543020509    0.1700
     35 H35        -9.0990    0.8150   55.4039 H       1  ZINC000543020509    0.4300
     36 H36        -4.2848    4.1464   52.5752 H       1  ZINC000543020509    0.1500
     37 H37        -2.5556    4.0359   50.8327 H       1  ZINC000543020509    0.1500
     38 H38        -4.5229    0.7026   49.0409 H       1  ZINC000543020509    0.1500
     39 H39        -7.2335    4.5250   52.4786 H       1  ZINC000543020509    0.1900
     40 H40        -8.7883    3.8764   54.4906 H       1  ZINC000543020509    0.1800
     41 H41        -9.8403   -0.3525   56.6238 H       1  ZINC000543020509    0.1500
@<TRIPOS>BOND
     1     1     2    1
     2     1    27    1
     3     1    28    1
     4     1    29    1
     5     2     3    1
     6     2     4    1
     7     3    30    1
     8     3    31    1
     9     3    32    1
    10     4    26   ar
    11     4     5   ar
    12     5     6   ar
    13     5    33    1
    14     6     7   ar
    15     6    34    1
    16     7     8   ar
    17     8     9    1
    18     8    26   ar
    19     9    10    2
    20     9    11   am
    21    11    12    1
    22    11    35    1
    23    12    25    1
    24    12    13    2
    25    13    14    1
    26    14    15    1
    27    14    24    1
    28    15    21   ar
    29    15    16   ar
    30    16    17   ar
    31    16    36    1
    32    17    18   ar
    33    17    37    1
    34    18    19    1
    35    18    20   ar
    36    20    21   ar
    37    20    38    1
    38    21    22    1
    39    22    23    3
    40    24    25    2
    41    24    39    1
    42    25    40    1
    43    26    41    1
@<TRIPOS>SUBSTRUCTURE
     1 ZINC000543020509        1 TEMP              0 ****  ****    0 ROOT


##########                                Name:    ZINC000187810810
##########                DOCK_Rotatable_Bonds:                   7
##########                         Heavy_Atoms:                  27
##########                    Molecular_Weight:             386.414
##########                DOCK_Rotatable_Bonds:                   7
##########                       Formal_Charge:           0.0599998
##########                     HBond_Acceptors:                   8
##########                        HBond_Donors:                   1
##########                         Heavy_Atoms:                  27
##########                          Grid_Score:          -29.104280
##########                     Grid_vdw_energy:          -27.446175
##########                      Grid_es_energy:           -1.658106
##########           Internal_energy_repulsive:           45.094109

@<TRIPOS>MOLECULE
ZINC000187810810
 52 53 1 0 0
SMALL
USER_CHARGES


@<TRIPOS>ATOM
      1 C1         -0.4497    5.3487   51.2668 C.3     1  ZINC000187810810   -0.1800
      2 C2         -1.0756    3.9972   50.9165 C.3     1  ZINC000187810810    0.1400
      3 C3          0.0269    3.0096   50.5292 C.3     1  ZINC000187810810   -0.1800
      4 C4         -1.8392    3.4595   52.1284 C.3     1  ZINC000187810810   -0.1400
      5 O5         -1.9911    4.1622   49.8018 O.3     1  ZINC000187810810   -0.3600
      6 C6         -2.7203    3.0880   49.4454 C.2     1  ZINC000187810810    0.6500
      7 O7         -2.1910    2.1586   48.8688 O.2     1  ZINC000187810810   -0.5600
      8 N8         -4.0373    3.0436   49.7281 N.am    1  ZINC000187810810   -0.6000
      9 C9         -4.6931    4.1631   50.4177 C.3     1  ZINC000187810810    0.1100
     10 C10        -5.4256    3.6223   51.6497 C.3     1  ZINC000187810810   -0.1400
     11 C11        -6.3779    2.5032   51.2215 C.3     1  ZINC000187810810    0.1800
     12 C12        -7.1367    1.9840   52.4444 C.3     1  ZINC000187810810   -0.1600
     13 N13        -7.3323    3.0236   50.2396 N.am    1  ZINC000187810810   -0.7100
     14 C14        -8.1708    4.0229   50.5788 C.2     1  ZINC000187810810    0.5500
     15 O15        -8.1360    4.4912   51.7000 O.2     1  ZINC000187810810   -0.5100
     16 C16        -9.1329    4.5493   49.5873 C.ar    1  ZINC000187810810   -0.0900
     17 C17        -8.6733    5.1259   48.4024 C.ar    1  ZINC000187810810   -0.0900
     18 C18        -9.5766    5.6149   47.4811 C.ar    1  ZINC000187810810   -0.0900
     19 C19       -10.9351    5.5350   47.7300 C.ar    1  ZINC000187810810   -0.0900
     20 C20       -11.3973    4.9649   48.9032 C.ar    1  ZINC000187810810   -0.0800
     21 C21       -10.5052    4.4666   49.8297 C.ar    1  ZINC000187810810   -0.1300
     22 C22       -11.0104    3.8458   51.1066 C.3     1  ZINC000187810810    0.5200
     23 F23       -10.7114    4.6866   52.1841 F       1  ZINC000187810810   -0.1800
     24 F24       -12.3958    3.6694   51.0232 F       1  ZINC000187810810   -0.1600
     25 F25       -10.3931    2.6050   51.2980 F       1  ZINC000187810810   -0.1600
     26 C26        -5.5756    1.3599   50.5959 C.3     1  ZINC000187810810   -0.1500
     27 C27        -4.8459    1.8775   49.3471 C.3     1  ZINC000187810810    0.1300
     28 H28         0.0944    5.7318   50.4035 H       1  ZINC000187810810    0.0900
     29 H29        -1.2351    6.0522   51.5428 H       1  ZINC000187810810    0.0600
     30 H30         0.2376    5.2248   52.1037 H       1  ZINC000187810810    0.0700
     31 H31         0.7142    2.8857   51.3661 H       1  ZINC000187810810    0.0700
     32 H32        -0.4190    2.0468   50.2797 H       1  ZINC000187810810    0.0600
     33 H33         0.5710    3.3927   49.6659 H       1  ZINC000187810810    0.0900
     34 H34        -2.6247    4.1630   52.4044 H       1  ZINC000187810810    0.0700
     35 H35        -2.2851    2.4967   51.8789 H       1  ZINC000187810810    0.0700
     36 H36        -1.1519    3.3356   52.9653 H       1  ZINC000187810810    0.0800
     37 H37        -3.9431    4.8905   50.7286 H       1  ZINC000187810810    0.1000
     38 H38        -5.4087    4.6373   49.7459 H       1  ZINC000187810810    0.0700
     39 H39        -4.6995    3.2297   52.3614 H       1  ZINC000187810810    0.0900
     40 H40        -5.9952    4.4259   52.1161 H       1  ZINC000187810810    0.0900
     41 H41        -7.7091    2.7979   52.8894 H       1  ZINC000187810810    0.0600
     42 H42        -7.8149    1.1869   52.1398 H       1  ZINC000187810810    0.0800
     43 H43        -6.4266    1.5971   53.1753 H       1  ZINC000187810810    0.0700
     44 H44        -7.3609    2.6491   49.3452 H       1  ZINC000187810810    0.4000
     45 H45        -7.6130    5.1894   48.2072 H       1  ZINC000187810810    0.1400
     46 H46        -9.2222    6.0613   46.5637 H       1  ZINC000187810810    0.1400
     47 H47       -11.6378    5.9195   47.0058 H       1  ZINC000187810810    0.1400
     48 H48       -12.4591    4.9059   49.0916 H       1  ZINC000187810810    0.1500
     49 H49        -4.8480    0.9886   51.3177 H       1  ZINC000187810810    0.0800
     50 H50        -6.2519    0.5534   50.3126 H       1  ZINC000187810810    0.1000
     51 H51        -5.5758    2.1639   48.5898 H       1  ZINC000187810810    0.0700
     52 H52        -4.1955    1.0962   48.9538 H       1  ZINC000187810810    0.1000
@<TRIPOS>BOND
     1     1     2    1
     2     1    28    1
     3     1    29    1
     4     1    30    1
     5     2     3    1
     6     2     4    1
     7     2     5    1
     8     3    31    1
     9     3    32    1
    10     3    33    1
    11     4    34    1
    12     4    35    1
    13     4    36    1
    14     5     6    1
    15     6     7    2
    16     6     8   am
    17     8    27    1
    18     8     9    1
    19     9    10    1
    20     9    37    1
    21     9    38    1
    22    10    11    1
    23    10    39    1
    24    10    40    1
    25    11    12    1
    26    11    13    1
    27    11    26    1
    28    12    41    1
    29    12    42    1
    30    12    43    1
    31    13    14   am
    32    13    44    1
    33    14    15    2
    34    14    16    1
    35    16    21   ar
    36    16    17   ar
    37    17    18   ar
    38    17    45    1
    39    18    19   ar
    40    18    46    1
    41    19    20   ar
    42    19    47    1
    43    20    21   ar
    44    20    48    1
    45    21    22    1
    46    22    23    1
    47    22    24    1
    48    22    25    1
    49    26    27    1
    50    26    49    1
    51    26    50    1
    52    27    51    1
    53    27    52    1
@<TRIPOS>SUBSTRUCTURE
     1 ZINC000187810810        1 TEMP              0 ****  ****    0 ROOT


##########                                Name:    ZINC000350493047
##########                DOCK_Rotatable_Bonds:                   7
##########                         Heavy_Atoms:                  24
##########                    Molecular_Weight:             330.387
##########                DOCK_Rotatable_Bonds:                   7
##########                       Formal_Charge:          -0.0300002
##########                     HBond_Acceptors:                   7
##########                        HBond_Donors:                   3
##########                         Heavy_Atoms:                  24
##########                          Grid_Score:          -29.086514
##########                     Grid_vdw_energy:          -29.339069
##########                      Grid_es_energy:            0.252556
##########           Internal_energy_repulsive:            8.024437

@<TRIPOS>MOLECULE
ZINC000350493047
 46 48 1 0 0
SMALL
USER_CHARGES


@<TRIPOS>ATOM
      1 C1          2.8082    1.5603   46.6166 C.3     1  <0>        -0.1600
      2 C2          2.1964    1.4956   48.0174 C.3     1  <0>         0.2600
      3 H3          2.7181    2.1917   48.6742 H       1  <0>         0.1200
      4 N4          2.3272    0.1351   48.5450 N.am    1  <0>        -0.7400
      5 C5          2.4738   -0.0626   49.8700 C.2     1  <0>         0.7100
      6 N6          2.5925   -1.3143   50.3557 N.am    1  <0>        -0.8600
      7 O7          2.4992    0.8882   50.6275 O.2     1  <0>        -0.5900
      8 C8          0.7381    1.8689   47.9464 C.2     1  <0>         0.1700
      9 N9          0.0621    2.1214   46.8647 N.2     1  <0>        -0.3800
     10 O10        -1.0890    2.3905   47.1362 O.3     1  <0>         0.0900
     11 C11        -1.2653    2.3336   48.4656 C.2     1  <0>         0.2400
     12 C12        -2.5191    2.5932   49.2011 C.ar    1  <0>        -0.0800
     13 C13        -2.4753    3.0735   50.5121 C.ar    1  <0>        -0.0200
     14 C14        -3.6473    3.3144   51.1949 C.ar    1  <0>        -0.2200
     15 C15        -4.8718    3.0799   50.5813 C.ar    1  <0>         0.1700
     16 O16        -6.0246    3.3182   51.2578 O.3     1  <0>        -0.3000
     17 C17        -6.9744    2.2522   51.3171 C.3     1  <0>         0.0800
     18 C18        -6.3084    1.0082   51.9083 C.3     1  <0>        -0.1500
     19 C19        -7.3253   -0.1332   51.9718 C.3     1  <0>        -0.1200
     20 C20        -8.5040    0.2823   52.8543 C.3     1  <0>        -0.1300
     21 C21        -9.1701    1.5265   52.2631 C.3     1  <0>        -0.1200
     22 C22        -8.1531    2.6679   52.1996 C.3     1  <0>        -0.1200
     23 C23        -4.9195    2.6026   49.2774 C.ar    1  <0>        -0.1600
     24 C24        -3.7521    2.3647   48.5857 C.ar    1  <0>        -0.0300
     25 N25        -0.0989    1.9950   48.9878 N.2     1  <0>        -0.4700
     26 H26         2.2865    0.8642   45.9598 H       1  <0>         0.0600
     27 H27         2.7109    2.5724   46.2240 H       1  <0>         0.0700
     28 H28         3.8629    1.2902   46.6679 H       1  <0>         0.0800
     29 H29         2.3081   -0.6233   47.9407 H       1  <0>         0.4000
     30 H30         2.6969   -1.4565   51.3094 H       1  <0>         0.4000
     31 H31         2.5735   -2.0728   49.7514 H       1  <0>         0.4200
     32 H32        -1.5240    3.2553   50.9898 H       1  <0>         0.1400
     33 H33        -3.6144    3.6857   52.2085 H       1  <0>         0.1400
     34 H34        -7.3336    2.0293   50.3124 H       1  <0>         0.0800
     35 H35        -5.4687    0.7121   51.2796 H       1  <0>         0.0700
     36 H36        -5.9492    1.2311   52.9131 H       1  <0>         0.0800
     37 H37        -7.6845   -0.3561   50.9671 H       1  <0>         0.0600
     38 H38        -6.8509   -1.0196   52.3930 H       1  <0>         0.0700
     39 H39        -9.2285   -0.5308   52.8995 H       1  <0>         0.0700
     40 H40        -8.1449    0.5053   53.8590 H       1  <0>         0.0700
     41 H41        -9.5292    1.3036   51.2584 H       1  <0>         0.0700
     42 H42       -10.0097    1.8226   52.8918 H       1  <0>         0.0700
     43 H43        -7.7940    2.8908   53.2043 H       1  <0>         0.0800
     44 H44        -8.6276    3.5542   51.7784 H       1  <0>         0.0700
     45 H45        -5.8733    2.4219   48.8038 H       1  <0>         0.1400
     46 H46        -3.7901    1.9940   47.5720 H       1  <0>         0.1400
@<TRIPOS>BOND
     1     1     2    1
     2     1    26    1
     3     1    27    1
     4     1    28    1
     5     2     3    1
     6     2     4    1
     7     2     8    1
     8     4     5   am
     9     4    29    1
    10     5     6   am
    11     5     7    2
    12     6    30    1
    13     6    31    1
    14     8    25    1
    15     8     9    2
    16     9    10    1
    17    10    11    1
    18    11    12    1
    19    11    25    2
    20    12    24   ar
    21    12    13   ar
    22    13    14   ar
    23    13    32    1
    24    14    15   ar
    25    14    33    1
    26    15    16    1
    27    15    23   ar
    28    16    17    1
    29    17    22    1
    30    17    18    1
    31    17    34    1
    32    18    19    1
    33    18    35    1
    34    18    36    1
    35    19    20    1
    36    19    37    1
    37    19    38    1
    38    20    21    1
    39    20    39    1
    40    20    40    1
    41    21    22    1
    42    21    41    1
    43    21    42    1
    44    22    43    1
    45    22    44    1
    46    23    24   ar
    47    23    45    1
    48    24    46    1
@<TRIPOS>SUBSTRUCTURE
     1 <0>         1 TEMP              0 ****  ****    0 ROOT


##########                                Name:    ZINC000355549087
##########                DOCK_Rotatable_Bonds:                   9
##########                         Heavy_Atoms:                  23
##########                    Molecular_Weight:             336.415
##########                DOCK_Rotatable_Bonds:                   9
##########                       Formal_Charge:        -9.53674e-07
##########                     HBond_Acceptors:                   8
##########                        HBond_Donors:                   4
##########                         Heavy_Atoms:                  23
##########                          Grid_Score:          -29.084223
##########                     Grid_vdw_energy:          -28.602551
##########                      Grid_es_energy:           -0.481671
##########           Internal_energy_repulsive:           15.225492

@<TRIPOS>MOLECULE
ZINC000355549087
 43 44 1 0 0
SMALL
USER_CHARGES


@<TRIPOS>ATOM
      1 C1        -10.7967   -3.0878   57.6689 C.3     1  <0>        -0.1500
      2 C2        -10.0695   -1.7904   58.0277 C.3     1  <0>        -0.1200
      3 C3        -10.8870   -1.0179   59.0650 C.3     1  <0>        -0.1000
      4 H4        -11.2026   -1.6964   59.8575 H       1  <0>         0.0800
      5 C5        -12.1196   -0.4098   58.3931 C.3     1  <0>        -0.1500
      6 C6        -10.0283    0.0991   59.6619 C.3     1  <0>         0.0900
      7 H7        -10.6529    0.9696   59.8626 H       1  <0>         0.1000
      8 O8         -9.4372   -0.3545   60.8813 O.3     1  <0>        -0.3500
      9 C9         -8.9462    0.6967   61.7154 C.3     1  <0>         0.0200
     10 C10        -8.9427    0.4739   58.6863 C.2     1  <0>         0.5100
     11 O11        -7.8065    0.0899   58.8665 O.2     1  <0>        -0.4800
     12 N12        -9.2343    1.2360   57.6136 N.am    1  <0>        -0.6200
     13 C13        -8.2335    1.5802   56.7131 C.2     1  <0>         0.2400
     14 N14        -8.1266    1.1098   55.5116 N.2     1  <0>        -0.5000
     15 C15        -7.1076    1.5476   54.7839 C.2     1  <0>         0.1700
     16 C16        -6.8585    1.0968   53.3907 C.2     1  <0>        -0.1100
     17 C17        -7.5619    0.1430   52.7126 C.2     1  <0>         0.0600
     18 N18        -7.0311    0.0177   51.4717 N.pl3   1  <0>        -0.5400
     19 C19        -5.9785    0.8961   51.3480 C.2     1  <0>        -0.0600
     20 C20        -5.1377    1.0726   50.1588 C.2     1  <0>         0.5900
     21 N21        -4.8124    2.3122   49.7414 N.am    1  <0>        -0.8600
     22 O22        -4.7340    0.0998   49.5491 O.2     1  <0>        -0.5300
     23 C23        -5.8579    1.5790   52.5261 C.2     1  <0>        -0.0600
     24 C24        -6.3194    2.4352   55.4168 C.2     1  <0>        -0.3200
     25 S25        -6.9736    2.6902   57.0324 S.3     1  <0>         0.2500
     26 H26       -10.2144   -3.6383   56.9299 H       1  <0>         0.0600
     27 H27       -10.9160   -3.6972   58.5646 H       1  <0>         0.0600
     28 H28       -11.7778   -2.8523   57.2562 H       1  <0>         0.0600
     29 H29        -9.0885   -2.0259   58.4403 H       1  <0>         0.0600
     30 H30        -9.9502   -1.1810   57.1319 H       1  <0>         0.0700
     31 H31       -11.8039    0.2687   57.6005 H       1  <0>         0.0700
     32 H32       -12.7313   -1.2056   57.9678 H       1  <0>         0.0600
     33 H33       -12.7020    0.1405   59.1320 H       1  <0>         0.0500
     34 H34        -8.4254    0.2679   62.5716 H       1  <0>         0.0900
     35 H35        -8.2571    1.3205   61.1461 H       1  <0>         0.0500
     36 H36        -9.7816    1.3035   62.0649 H       1  <0>         0.0500
     37 H37       -10.1428    1.5442   57.4701 H       1  <0>         0.4200
     38 H38        -8.4002   -0.4173   53.0998 H       1  <0>         0.1800
     39 H39        -7.3418   -0.5913   50.7837 H       1  <0>         0.4200
     40 H40        -4.2555    2.4289   48.9558 H       1  <0>         0.4000
     41 H41        -5.1352    3.0876   50.2267 H       1  <0>         0.4100
     42 H42        -5.1275    2.3415   52.7531 H       1  <0>         0.1500
     43 H43        -5.4416    2.9109   55.0053 H       1  <0>         0.1800
@<TRIPOS>BOND
     1     1     2    1
     2     1    26    1
     3     1    27    1
     4     1    28    1
     5     2     3    1
     6     2    29    1
     7     2    30    1
     8     3     4    1
     9     3     5    1
    10     3     6    1
    11     5    31    1
    12     5    32    1
    13     5    33    1
    14     6     7    1
    15     6     8    1
    16     6    10    1
    17     8     9    1
    18     9    34    1
    19     9    35    1
    20     9    36    1
    21    10    11    2
    22    10    12   am
    23    12    13    1
    24    12    37    1
    25    13    25    1
    26    13    14    2
    27    14    15    1
    28    15    16    1
    29    15    24    2
    30    16    23    1
    31    16    17    2
    32    17    18    1
    33    17    38    1
    34    18    19    1
    35    18    39    1
    36    19    20    1
    37    19    23    2
    38    20    21   am
    39    20    22    2
    40    21    40    1
    41    21    41    1
    42    23    42    1
    43    24    25    1
    44    24    43    1
@<TRIPOS>SUBSTRUCTURE
     1 <0>         1 TEMP              0 ****  ****    0 ROOT


##########                                Name:    ZINC001220171460
##########                DOCK_Rotatable_Bonds:                  10
##########                         Heavy_Atoms:                  25
##########                    Molecular_Weight:             383.773
##########                DOCK_Rotatable_Bonds:                  10
##########                       Formal_Charge:           0.0199996
##########                     HBond_Acceptors:                  10
##########                        HBond_Donors:                   3
##########                         Heavy_Atoms:                  25
##########                          Grid_Score:          -29.081568
##########                     Grid_vdw_energy:          -28.195719
##########                      Grid_es_energy:           -0.885849
##########           Internal_energy_repulsive:           10.026620

@<TRIPOS>MOLECULE
ZINC001220171460
 43 44 1 0 0
SMALL
USER_CHARGES


@<TRIPOS>ATOM
      1 C1         -5.2857    4.0029   53.7996 C.3     1  ZINC001220171460    0.0200
      2 O2         -6.1622    3.5904   52.7491 O.3     1  ZINC001220171460   -0.3100
      3 C3         -5.7833    2.5075   52.0183 C.ar    1  ZINC001220171460    0.1000
      4 C4         -4.9893    2.6717   50.8958 C.ar    1  ZINC001220171460   -0.1500
      5 C5         -4.6042    1.5696   50.1527 C.ar    1  ZINC001220171460   -0.0600
      6 Cl6        -3.6082    1.7781   48.7461 Cl      1  ZINC001220171460   -0.0400
      7 C7         -5.0116    0.3003   50.5292 C.ar    1  ZINC001220171460    0.1000
      8 F8         -4.6333   -0.7731   49.8014 F       1  ZINC001220171460   -0.1200
      9 C9         -5.8054    0.1301   51.6503 C.ar    1  ZINC001220171460   -0.1200
     10 C10        -6.1889    1.2310   52.4013 C.ar    1  ZINC001220171460    0.1800
     11 N11        -6.9929    1.0608   53.5373 N.am    1  ZINC001220171460   -0.6700
     12 C12        -8.2045    0.4815   53.4246 C.2     1  ZINC001220171460    0.7100
     13 O13        -8.6004    0.1064   52.3379 O.2     1  ZINC001220171460   -0.5700
     14 N14        -8.9774    0.3179   54.5166 N.am    1  ZINC001220171460   -0.7400
     15 C15       -10.2952   -0.3103   54.3939 C.3     1  ZINC001220171460    0.1400
     16 C16       -11.1228   -0.0079   55.6448 C.3     1  ZINC001220171460   -0.1400
     17 C17       -10.7665   -1.0084   56.7462 C.3     1  ZINC001220171460    0.0500
     18 H18        -9.8509   -1.5348   56.4766 H       1  ZINC001220171460    0.1000
     19 N19       -10.5644   -0.2915   58.0123 N.3     1  ZINC001220171460   -0.6500
     20 C20        -9.7289   -1.0740   58.9329 C.3     1  ZINC001220171460    0.0100
     21 C21        -8.3864   -0.4723   59.3532 C.3     1  ZINC001220171460   -0.2000
     22 C22        -9.5438   -0.5332   60.3521 C.3     1  ZINC001220171460   -0.1600
     23 C23       -11.9058   -2.0168   56.9072 C.3     1  ZINC001220171460    0.4600
     24 F24       -12.9255   -1.4491   57.6785 F       1  ZINC001220171460   -0.1800
     25 F25       -12.4089   -2.3573   55.6470 F       1  ZINC001220171460   -0.1800
     26 F26       -11.4247   -3.1663   57.5433 F       1  ZINC001220171460   -0.1700
     27 H27        -5.1713    3.1906   54.5174 H       1  ZINC001220171460    0.0600
     28 H28        -4.3119    4.2579   53.3814 H       1  ZINC001220171460    0.0600
     29 H29        -5.7051    4.8749   54.3015 H       1  ZINC001220171460    0.1100
     30 H30        -4.6707    3.6603   50.5998 H       1  ZINC001220171460    0.1500
     31 H31        -6.1224   -0.8601   51.9426 H       1  ZINC001220171460    0.1800
     32 H32        -6.6770    1.3600   54.4043 H       1  ZINC001220171460    0.4200
     33 H33        -8.6610    0.6159   55.3838 H       1  ZINC001220171460    0.4000
     34 H34       -10.8059    0.0853   53.5160 H       1  ZINC001220171460    0.0800
     35 H35       -10.1754   -1.3886   54.2895 H       1  ZINC001220171460    0.0700
     36 H36       -10.9055    1.0033   55.9885 H       1  ZINC001220171460    0.1000
     37 H37       -12.1834   -0.0911   55.4076 H       1  ZINC001220171460    0.1000
     38 H38       -10.1672    0.6219   57.8512 H       1  ZINC001220171460    0.3600
     39 H39        -9.7792   -2.1559   58.8091 H       1  ZINC001220171460    0.1200
     40 H40        -7.5532   -1.1582   59.5060 H       1  ZINC001220171460    0.1000
     41 H41        -8.1233    0.5043   58.9467 H       1  ZINC001220171460    0.1000
     42 H42       -10.0421    0.4033   60.6027 H       1  ZINC001220171460    0.1000
     43 H43        -9.4720   -1.2592   61.1619 H       1  ZINC001220171460    0.1000
@<TRIPOS>BOND
     1     1     2    1
     2     1    27    1
     3     1    28    1
     4     1    29    1
     5     2     3    1
     6     3    10   ar
     7     3     4   ar
     8     4     5   ar
     9     4    30    1
    10     5     6    1
    11     5     7   ar
    12     7     8    1
    13     7     9   ar
    14     9    10   ar
    15     9    31    1
    16    10    11    1
    17    11    12   am
    18    11    32    1
    19    12    13    2
    20    12    14   am
    21    14    15    1
    22    14    33    1
    23    15    16    1
    24    15    34    1
    25    15    35    1
    26    16    17    1
    27    16    36    1
    28    16    37    1
    29    17    18    1
    30    17    19    1
    31    17    23    1
    32    19    20    1
    33    19    38    1
    34    20    22    1
    35    20    21    1
    36    20    39    1
    37    21    22    1
    38    21    40    1
    39    21    41    1
    40    22    42    1
    41    22    43    1
    42    23    24    1
    43    23    25    1
    44    23    26    1
@<TRIPOS>SUBSTRUCTURE
     1 ZINC001220171460        1 TEMP              0 ****  ****    0 ROOT


##########                                Name:    ZINC001045438664
##########                DOCK_Rotatable_Bonds:                   6
##########                         Heavy_Atoms:                  26
##########                    Molecular_Weight:             352.439
##########                DOCK_Rotatable_Bonds:                   6
##########                       Formal_Charge:          -0.0099999
##########                     HBond_Acceptors:                   7
##########                        HBond_Donors:                   2
##########                         Heavy_Atoms:                  26
##########                          Grid_Score:          -29.080919
##########                     Grid_vdw_energy:          -29.160095
##########                      Grid_es_energy:            0.079176
##########           Internal_energy_repulsive:            5.738593

@<TRIPOS>MOLECULE
ZINC001045438664
 50 53 1 0 0
SMALL
USER_CHARGES


@<TRIPOS>ATOM
      1 C1        -15.2171   -3.4507   59.3386 C.3     1  ZINC001045438664   -0.1100
      2 C2        -14.3090   -2.4196   59.9580 C.ar    1  ZINC001045438664    0.2100
      3 C3        -12.9503   -2.4489   59.7147 C.ar    1  ZINC001045438664   -0.3000
      4 C4        -12.1489   -1.4723   60.3105 C.ar    1  ZINC001045438664    0.4500
      5 N5        -10.7802   -1.4585   60.0969 N.pl3   1  ZINC001045438664   -0.7100
      6 C6        -10.1415   -0.2751   59.5156 C.3     1  ZINC001045438664    0.1500
      7 H7        -10.8623    0.5413   59.4699 H       1  ZINC001045438664    0.0900
      8 C8         -9.6511   -0.6020   58.1037 C.3     1  ZINC001045438664   -0.1300
      9 C9         -8.9841    0.6338   57.4966 C.3     1  ZINC001045438664   -0.1200
     10 C10        -7.7957    1.0506   58.3655 C.3     1  ZINC001045438664   -0.1200
     11 C11        -8.2861    1.3775   59.7775 C.3     1  ZINC001045438664   -0.1300
     12 C12        -8.9531    0.1416   60.3845 C.3     1  ZINC001045438664    0.1400
     13 H13        -8.2324   -0.6748   60.4302 H       1  ZINC001045438664    0.1000
     14 N14        -9.4227    0.4546   61.7364 N.am    1  ZINC001045438664   -0.7200
     15 C15        -8.6513    0.1623   62.8023 C.2     1  ZINC001045438664    0.5700
     16 O16        -7.5667   -0.3624   62.6419 O.2     1  ZINC001045438664   -0.5200
     17 C17        -9.1245    0.4797   64.1664 C.ar    1  ZINC001045438664   -0.2500
     18 C18       -10.4397    0.9013   64.3919 C.ar    1  ZINC001045438664    0.1900
     19 N19       -10.8205    1.1741   65.6276 N.ar    1  ZINC001045438664   -0.5200
     20 C20        -9.9819    1.0541   66.6382 C.ar    1  ZINC001045438664    0.3200
     21 N21        -8.7345    0.6608   66.4705 N.ar    1  ZINC001045438664   -0.5200
     22 C22        -8.2713    0.3617   65.2695 C.ar    1  ZINC001045438664    0.2100
     23 N23       -12.7210   -0.5557   61.0855 N.ar    1  ZINC001045438664   -0.5800
     24 C24       -14.0227   -0.5658   61.2903 C.ar    1  ZINC001045438664    0.4000
     25 C25       -14.6333    0.4905   62.1749 C.3     1  ZINC001045438664   -0.1100
     26 C26       -14.7574    1.9046   61.6041 C.3     1  ZINC001045438664   -0.1500
     27 C27       -16.0059    1.0376   61.7777 C.3     1  ZINC001045438664   -0.1500
     28 N28       -14.8061   -1.4704   60.7388 N.ar    1  ZINC001045438664   -0.5600
     29 H29       -15.5653   -3.0929   58.3697 H       1  ZINC001045438664    0.0800
     30 H30       -14.6699   -4.3840   59.2059 H       1  ZINC001045438664    0.0800
     31 H31       -16.0727   -3.6208   59.9921 H       1  ZINC001045438664    0.0800
     32 H32       -12.5178   -3.2080   59.0799 H       1  ZINC001045438664    0.1400
     33 H33       -10.2448   -2.2325   60.3321 H       1  ZINC001045438664    0.4100
     34 H34        -8.9303   -1.4184   58.1493 H       1  ZINC001045438664    0.0700
     35 H35       -10.4978   -0.8989   57.4846 H       1  ZINC001045438664    0.0700
     36 H36        -8.6346    0.4010   56.4907 H       1  ZINC001045438664    0.0700
     37 H37        -9.7048    1.4502   57.4510 H       1  ZINC001045438664    0.0700
     38 H38        -7.0749    0.2342   58.4112 H       1  ZINC001045438664    0.0700
     39 H39        -7.3204    1.9311   57.9331 H       1  ZINC001045438664    0.0700
     40 H40        -7.4394    1.6744   60.3965 H       1  ZINC001045438664    0.0800
     41 H41        -9.0068    2.1939   59.7318 H       1  ZINC001045438664    0.0700
     42 H42       -10.2888    0.8722   61.8645 H       1  ZINC001045438664    0.4000
     43 H43       -11.1323    1.0023   63.5694 H       1  ZINC001045438664    0.1700
     44 H44       -10.3276    1.2857   67.6348 H       1  ZINC001045438664    0.2100
     45 H45        -7.2484    0.0402   65.1402 H       1  ZINC001045438664    0.1800
     46 H46       -14.4187    0.3940   63.2392 H       1  ZINC001045438664    0.1300
     47 H47       -14.6243    2.7388   62.2930 H       1  ZINC001045438664    0.1000
     48 H48       -14.3974    2.0711   60.5889 H       1  ZINC001045438664    0.1100
     49 H49       -16.4673    0.6334   60.8767 H       1  ZINC001045438664    0.1000
     50 H50       -16.6942    1.3012   62.5808 H       1  ZINC001045438664    0.1000
@<TRIPOS>BOND
     1     1     2    1
     2     1    29    1
     3     1    30    1
     4     1    31    1
     5     2    28   ar
     6     2     3   ar
     7     3     4   ar
     8     3    32    1
     9     4     5    1
    10     4    23   ar
    11     5     6    1
    12     5    33    1
    13     6     7    1
    14     6    12    1
    15     6     8    1
    16     8     9    1
    17     8    34    1
    18     8    35    1
    19     9    10    1
    20     9    36    1
    21     9    37    1
    22    10    11    1
    23    10    38    1
    24    10    39    1
    25    11    12    1
    26    11    40    1
    27    11    41    1
    28    12    13    1
    29    12    14    1
    30    14    15   am
    31    14    42    1
    32    15    16    2
    33    15    17    1
    34    17    22   ar
    35    17    18   ar
    36    18    19   ar
    37    18    43    1
    38    19    20   ar
    39    20    21   ar
    40    20    44    1
    41    21    22   ar
    42    22    45    1
    43    23    24   ar
    44    24    25    1
    45    24    28   ar
    46    25    27    1
    47    25    26    1
    48    25    46    1
    49    26    27    1
    50    26    47    1
    51    26    48    1
    52    27    49    1
    53    27    50    1
@<TRIPOS>SUBSTRUCTURE
     1 ZINC001045438664        1 TEMP              0 ****  ****    0 ROOT


##########                                Name:    ZINC001009116151
##########                DOCK_Rotatable_Bonds:                   6
##########                         Heavy_Atoms:                  25
##########                    Molecular_Weight:             342.481
##########                DOCK_Rotatable_Bonds:                   6
##########                       Formal_Charge:           0.0600006
##########                     HBond_Acceptors:                   4
##########                        HBond_Donors:                   1
##########                         Heavy_Atoms:                  25
##########                          Grid_Score:          -29.034828
##########                     Grid_vdw_energy:          -28.044403
##########                      Grid_es_energy:           -0.990425
##########           Internal_energy_repulsive:            9.223296

@<TRIPOS>MOLECULE
ZINC001009116151
 55 59 1 0 0
SMALL
USER_CHARGES


@<TRIPOS>ATOM
      1 O1         -7.0262   -0.1883   50.4668 O.2     1  ZINC001009116151   -0.5400
      2 C2         -7.0806    0.7614   51.2192 C.2     1  ZINC001009116151    0.5200
      3 N3         -8.0464    0.8236   52.1571 N.am    1  ZINC001009116151   -0.7300
      4 C4         -9.0342   -0.2530   52.2639 C.3     1  ZINC001009116151    0.1500
      5 C5         -9.9186   -0.0141   53.4893 C.3     1  ZINC001009116151   -0.1200
      6 H6        -10.8493    0.5206   53.2995 H       1  ZINC001009116151    0.1100
      7 C7         -9.2183    0.2416   54.8254 C.3     1  ZINC001009116151   -0.1700
      8 H8         -8.1312    0.3140   54.8570 H       1  ZINC001009116151    0.1200
      9 C9        -10.0157    0.9513   55.9408 C.3     1  ZINC001009116151    0.1300
     10 N10       -10.7202   -0.1420   56.6502 N.am    1  ZINC001009116151   -0.6200
     11 C11       -10.9213   -0.2720   57.9765 C.2     1  ZINC001009116151    0.5500
     12 O12       -11.5211   -1.2339   58.4076 O.2     1  ZINC001009116151   -0.5300
     13 C13       -10.4008    0.7780   58.9239 C.3     1  ZINC001009116151   -0.1200
     14 C14       -11.1909    0.7671   60.2531 C.3     1  ZINC001009116151   -0.0900
     15 C15       -10.3951   -0.1369   61.1656 C.2     1  ZINC001009116151   -0.1800
     16 C16        -9.1872   -0.3220   60.7070 C.2     1  ZINC001009116151   -0.1500
     17 C17        -8.9760    0.4277   59.4122 C.3     1  ZINC001009116151   -0.0900
     18 C18       -11.1533   -1.0599   55.5710 C.3     1  ZINC001009116151    0.1200
     19 C19        -9.9358   -1.0983   54.5687 C.3     1  ZINC001009116151   -0.1600
     20 H20        -9.4136   -2.0469   54.4443 H       1  ZINC001009116151    0.1300
     21 C21        -6.0645    1.8690   51.1093 C.3     1  ZINC001009116151   -0.0700
     22 C22        -6.3728    2.7238   49.8784 C.3     1  ZINC001009116151   -0.1100
     23 C23        -5.3412    3.8481   49.7669 C.3     1  ZINC001009116151   -0.1100
     24 C24        -4.3452    3.7429   50.9236 C.3     1  ZINC001009116151   -0.0900
     25 C25        -5.0924    3.8663   52.2529 C.3     1  ZINC001009116151   -0.1100
     26 C26        -6.1240    2.7420   52.3644 C.3     1  ZINC001009116151   -0.0900
     27 C27        -3.6335    2.3899   50.8623 C.3     1  ZINC001009116151   -0.1100
     28 C28        -4.6651    1.2655   50.9738 C.3     1  ZINC001009116151   -0.1000
     29 H29        -8.0876    1.5812   52.7615 H       1  ZINC001009116151    0.4000
     30 H30        -9.6529   -0.2687   51.3667 H       1  ZINC001009116151    0.0800
     31 H31        -8.5202   -1.2087   52.3675 H       1  ZINC001009116151    0.0700
     32 H32        -9.3395    1.4710   56.6196 H       1  ZINC001009116151    0.0900
     33 H33       -10.7335    1.6492   55.5098 H       1  ZINC001009116151    0.0800
     34 H34       -10.4245    1.7650   58.4620 H       1  ZINC001009116151    0.1100
     35 H35       -11.2471    1.7728   60.6697 H       1  ZINC001009116151    0.0900
     36 H36       -12.1913    0.3634   60.0969 H       1  ZINC001009116151    0.0800
     37 H37       -10.7757   -0.5724   62.0776 H       1  ZINC001009116151    0.1300
     38 H38        -8.4370   -0.9307   61.1898 H       1  ZINC001009116151    0.1300
     39 H39        -8.4703   -0.2067   58.6842 H       1  ZINC001009116151    0.0900
     40 H40        -8.4010    1.3367   59.5891 H       1  ZINC001009116151    0.0900
     41 H41       -11.3354   -2.0574   55.9708 H       1  ZINC001009116151    0.0900
     42 H42       -12.0487   -0.6760   55.0822 H       1  ZINC001009116151    0.0800
     43 H43        -6.3303    2.1017   48.9843 H       1  ZINC001009116151    0.0700
     44 H44        -7.3698    3.1535   49.9750 H       1  ZINC001009116151    0.0700
     45 H45        -4.8087    3.7602   48.8199 H       1  ZINC001009116151    0.0700
     46 H46        -5.8481    4.8120   49.8106 H       1  ZINC001009116151    0.0700
     47 H47        -3.6102    4.5440   50.8441 H       1  ZINC001009116151    0.0700
     48 H48        -4.3828    3.7914   53.0770 H       1  ZINC001009116151    0.0700
     49 H49        -5.5995    4.8303   52.2966 H       1  ZINC001009116151    0.0700
     50 H50        -7.1210    3.1719   52.4610 H       1  ZINC001009116151    0.0700
     51 H51        -5.9045    2.1330   53.2413 H       1  ZINC001009116151    0.0700
     52 H52        -3.1011    2.3019   49.9152 H       1  ZINC001009116151    0.0700
     53 H53        -2.9239    2.3150   51.6864 H       1  ZINC001009116151    0.0700
     54 H54        -4.4454    0.6566   51.8507 H       1  ZINC001009116151    0.0700
     55 H55        -4.6226    0.6435   50.0797 H       1  ZINC001009116151    0.0700
@<TRIPOS>BOND
     1     1     2    2
     2     2     3   am
     3     2    21    1
     4     3     4    1
     5     3    29    1
     6     4     5    1
     7     4    30    1
     8     4    31    1
     9     5     6    1
    10     5    19    1
    11     5     7    1
    12     7     8    1
    13     7    19    1
    14     7     9    1
    15     9    10    1
    16     9    32    1
    17     9    33    1
    18    10    11   am
    19    10    18    1
    20    11    12    2
    21    11    13    1
    22    13    17    1
    23    13    14    1
    24    13    34    1
    25    14    15    1
    26    14    35    1
    27    14    36    1
    28    15    16    2
    29    15    37    1
    30    16    17    1
    31    16    38    1
    32    17    39    1
    33    17    40    1
    34    18    19    1
    35    18    41    1
    36    18    42    1
    37    19    20    1
    38    21    26    1
    39    21    28    1
    40    21    22    1
    41    22    23    1
    42    22    43    1
    43    22    44    1
    44    23    24    1
    45    23    45    1
    46    23    46    1
    47    24    25    1
    48    24    27    1
    49    24    47    1
    50    25    26    1
    51    25    48    1
    52    25    49    1
    53    26    50    1
    54    26    51    1
    55    27    28    1
    56    27    52    1
    57    27    53    1
    58    28    54    1
    59    28    55    1
@<TRIPOS>SUBSTRUCTURE
     1 ZINC001009116151        1 TEMP              0 ****  ****    0 ROOT


##########                                Name:    ZINC000846412382
##########                DOCK_Rotatable_Bonds:                   6
##########                         Heavy_Atoms:                  26
##########                    Molecular_Weight:             370.475
##########                DOCK_Rotatable_Bonds:                   6
##########                       Formal_Charge:               -0.03
##########                     HBond_Acceptors:                   7
##########                        HBond_Donors:                   4
##########                         Heavy_Atoms:                  26
##########                          Grid_Score:          -29.014683
##########                     Grid_vdw_energy:          -28.699261
##########                      Grid_es_energy:           -0.315422
##########           Internal_energy_repulsive:           16.902489

@<TRIPOS>MOLECULE
ZINC000846412382
 48 50 1 0 0
SMALL
USER_CHARGES


@<TRIPOS>ATOM
      1 C1         -1.5135    3.1444   51.3583 C.3     1  ZINC000846412382   -0.1400
      2 C2         -1.6724    2.7159   49.9223 C.2     1  ZINC000846412382    0.0300
      3 C3         -2.8664    2.6720   49.3179 C.2     1  ZINC000846412382   -0.2700
      4 C4         -4.1397    3.0254   49.9574 C.2     1  ZINC000846412382    0.6000
      5 O5         -4.3841    4.1867   50.2258 O.2     1  ZINC000846412382   -0.5200
      6 N6         -5.0381    2.0633   50.2471 N.am    1  ZINC000846412382   -0.7100
      7 C7         -6.3081    2.4158   50.8868 C.3     1  ZINC000846412382    0.1200
      8 H8         -6.1333    3.1786   51.6455 H       1  ZINC000846412382    0.1000
      9 C9         -7.2770    2.9566   49.8334 C.3     1  ZINC000846412382   -0.1700
     10 C10        -6.9107    1.1722   51.5434 C.3     1  ZINC000846412382    0.1700
     11 C11        -6.0111    0.7162   52.6940 C.3     1  ZINC000846412382   -0.1400
     12 O12        -7.0142    0.1254   50.5761 O.3     1  ZINC000846412382   -0.5500
     13 C13        -8.2813    1.5002   52.0772 C.ar    1  ZINC000846412382   -0.1200
     14 C14        -9.2968    0.5659   51.9951 C.ar    1  ZINC000846412382   -0.1100
     15 C15       -10.5541    0.8667   52.4848 C.ar    1  ZINC000846412382   -0.1200
     16 C16       -10.7956    2.1016   53.0571 C.ar    1  ZINC000846412382   -0.1200
     17 C17        -9.7799    3.0356   53.1399 C.ar    1  ZINC000846412382   -0.1200
     18 C18        -8.5215    2.7332   52.6541 C.ar    1  ZINC000846412382   -0.1000
     19 S19        -2.6993    2.1340   47.6553 S.3     1  ZINC000846412382    0.2000
     20 C20        -0.9565    1.9776   47.8292 C.ar    1  ZINC000846412382    0.1400
     21 N21        -0.0133    1.5939   46.9614 N.ar    1  ZINC000846412382   -0.5300
     22 C22         1.2520    1.5501   47.3109 C.ar    1  ZINC000846412382    0.3900
     23 C23         2.2736    1.1110   46.2939 C.3     1  ZINC000846412382   -0.0900
     24 N24         1.6590    1.8785   48.5236 N.ar    1  ZINC000846412382   -0.5800
     25 C25         0.8022    2.2714   49.4539 C.ar    1  ZINC000846412382    0.5100
     26 N26         1.2450    2.6109   50.7163 N.pl3   1  ZINC000846412382   -0.8300
     27 C27        -0.5820    2.3431   49.1297 C.ar    1  ZINC000846412382   -0.2500
     28 H28        -1.2671    4.2055   51.3957 H       1  ZINC000846412382    0.0800
     29 H29        -2.4456    2.9687   51.8952 H       1  ZINC000846412382    0.1100
     30 H30        -0.7127    2.5688   51.8227 H       1  ZINC000846412382    0.0700
     31 H31        -4.8439    1.1376   50.0320 H       1  ZINC000846412382    0.4000
     32 H32        -7.4517    2.1936   49.0748 H       1  ZINC000846412382    0.0600
     33 H33        -8.2219    3.2188   50.3094 H       1  ZINC000846412382    0.0800
     34 H34        -6.8476    3.8425   49.3657 H       1  ZINC000846412382    0.0700
     35 H35        -5.9322    1.5145   53.4319 H       1  ZINC000846412382    0.0700
     36 H36        -6.4404   -0.1698   53.1617 H       1  ZINC000846412382    0.0700
     37 H37        -5.0197    0.4790   52.3079 H       1  ZINC000846412382    0.0700
     38 H38        -7.5602    0.3503   49.8103 H       1  ZINC000846412382    0.3800
     39 H39        -9.1080   -0.3990   51.5481 H       1  ZINC000846412382    0.1300
     40 H40       -11.3476    0.1370   52.4200 H       1  ZINC000846412382    0.1200
     41 H41       -11.7781    2.3369   53.4389 H       1  ZINC000846412382    0.1200
     42 H42        -9.9687    4.0006   53.5867 H       1  ZINC000846412382    0.1200
     43 H43        -7.7280    3.4629   52.7189 H       1  ZINC000846412382    0.1300
     44 H44         2.6373    1.9801   45.7456 H       1  ZINC000846412382    0.0900
     45 H45         3.1075    0.6270   46.8022 H       1  ZINC000846412382    0.0900
     46 H46         1.8150    0.4083   45.5982 H       1  ZINC000846412382    0.0900
     47 H47         2.0965    2.2756   51.0381 H       1  ZINC000846412382    0.4100
     48 H48         0.7048    3.1848   51.2816 H       1  ZINC000846412382    0.4200
@<TRIPOS>BOND
     1     1     2    1
     2     1    28    1
     3     1    29    1
     4     1    30    1
     5     2    27    1
     6     2     3    2
     7     3     4    1
     8     3    19    1
     9     4     5    2
    10     4     6   am
    11     6     7    1
    12     6    31    1
    13     7     8    1
    14     7     9    1
    15     7    10    1
    16     9    32    1
    17     9    33    1
    18     9    34    1
    19    10    11    1
    20    10    12    1
    21    10    13    1
    22    11    35    1
    23    11    36    1
    24    11    37    1
    25    12    38    1
    26    13    18   ar
    27    13    14   ar
    28    14    15   ar
    29    14    39    1
    30    15    16   ar
    31    15    40    1
    32    16    17   ar
    33    16    41    1
    34    17    18   ar
    35    17    42    1
    36    18    43    1
    37    19    20    1
    38    20    27   ar
    39    20    21   ar
    40    21    22   ar
    41    22    23    1
    42    22    24   ar
    43    23    44    1
    44    23    45    1
    45    23    46    1
    46    24    25   ar
    47    25    26    1
    48    25    27   ar
    49    26    47    1
    50    26    48    1
@<TRIPOS>SUBSTRUCTURE
     1 ZINC000846412382        1 TEMP              0 ****  ****    0 ROOT


##########                                Name:    ZINC000546115054
##########                DOCK_Rotatable_Bonds:                  10
##########                         Heavy_Atoms:                  26
##########                    Molecular_Weight:             363.457
##########                DOCK_Rotatable_Bonds:                  10
##########                       Formal_Charge:        -4.39584e-07
##########                     HBond_Acceptors:                   7
##########                        HBond_Donors:                   2
##########                         Heavy_Atoms:                  26
##########                          Grid_Score:          -29.011742
##########                     Grid_vdw_energy:          -26.302355
##########                      Grid_es_energy:           -2.709387
##########           Internal_energy_repulsive:           29.352819

@<TRIPOS>MOLECULE
ZINC000546115054
 55 56 1 0 0
SMALL
USER_CHARGES


@<TRIPOS>ATOM
      1 C1         -1.8050    3.9340   51.0689 C.3     1  ZINC000546115054   -0.1500
      2 C2         -2.9665    3.6314   52.0178 C.3     1  ZINC000546115054    0.0600
      3 O3         -4.1647    3.4486   51.2607 O.3     1  ZINC000546115054   -0.3700
      4 C4         -4.5093    2.0795   51.0398 C.3     1  ZINC000546115054    0.0500
      5 H5         -3.7617    1.4362   51.5041 H       1  ZINC000546115054    0.0700
      6 C6         -4.5602    1.8011   49.5352 C.3     1  ZINC000546115054    0.0400
      7 O7         -4.9613    0.4472   49.3160 O.3     1  ZINC000546115054   -0.3700
      8 C8         -6.2594    0.1335   49.8245 C.3     1  ZINC000546115054    0.0600
      9 C9         -6.2767    0.3449   51.3406 C.3     1  ZINC000546115054   -0.1600
     10 C10        -5.8835    1.7922   51.6524 C.3     1  ZINC000546115054    0.1700
     11 H11        -6.6211    2.4709   51.2241 H       1  ZINC000546115054    0.1000
     12 N12        -5.8266    1.9828   53.1038 N.am    1  ZINC000546115054   -0.7300
     13 C13        -6.9622    2.1792   53.8027 C.2     1  ZINC000546115054    0.7200
     14 O14        -8.0336    2.1997   53.2284 O.2     1  ZINC000546115054   -0.5900
     15 N15        -6.9099    2.3529   55.1382 N.am    1  ZINC000546115054   -0.7200
     16 C16        -8.1441    2.5682   55.8977 C.3     1  ZINC000546115054    0.1600
     17 H17        -8.8987    1.8505   55.5757 H       1  ZINC000546115054    0.1200
     18 C18        -7.8643    2.3790   57.3900 C.3     1  ZINC000546115054   -0.1000
     19 C19        -8.6217    1.1781   57.8948 C.ar    1  ZINC000546115054   -0.0800
     20 C20        -7.9377    0.1124   58.4494 C.ar    1  ZINC000546115054   -0.1100
     21 C21        -8.6326   -0.9891   58.9124 C.ar    1  ZINC000546115054   -0.1200
     22 C22       -10.0114   -1.0251   58.8212 C.ar    1  ZINC000546115054   -0.1200
     23 C23       -10.6955    0.0408   58.2675 C.ar    1  ZINC000546115054   -0.1200
     24 C24       -10.0011    1.1444   57.8084 C.ar    1  ZINC000546115054   -0.1100
     25 C25        -8.6460    3.9681   55.6542 C.2     1  ZINC000546115054    0.5000
     26 O26        -9.8086    4.1534   55.3628 O.2     1  ZINC000546115054   -0.5200
     27 N27        -7.8030    5.0143   55.7605 N.am    1  ZINC000546115054   -0.6200
     28 C28        -8.2913    6.3754   55.5256 C.3     1  ZINC000546115054    0.0800
     29 C29        -6.3983    4.7903   56.1108 C.3     1  ZINC000546115054    0.0700
     30 H30        -0.8910    4.0735   51.6463 H       1  ZINC000546115054    0.0700
     31 H31        -1.6745    3.1016   50.3775 H       1  ZINC000546115054    0.0600
     32 H32        -2.0220    4.8424   50.5070 H       1  ZINC000546115054    0.0600
     33 H33        -2.7494    2.7230   52.5797 H       1  ZINC000546115054    0.0500
     34 H34        -3.0970    4.4639   52.7092 H       1  ZINC000546115054    0.0500
     35 H35        -5.2779    2.4735   49.0652 H       1  ZINC000546115054    0.0600
     36 H36        -3.5730    1.9625   49.1020 H       1  ZINC000546115054    0.1000
     37 H37        -6.9994    0.7841   49.3583 H       1  ZINC000546115054    0.0600
     38 H38        -6.4964   -0.9063   49.5997 H       1  ZINC000546115054    0.1000
     39 H39        -7.2779    0.1488   51.7243 H       1  ZINC000546115054    0.0900
     40 H40        -5.5657   -0.3342   51.8112 H       1  ZINC000546115054    0.0800
     41 H41        -4.9717    1.9677   53.5619 H       1  ZINC000546115054    0.3900
     42 H42        -6.0553    2.3354   55.5966 H       1  ZINC000546115054    0.4000
     43 H43        -6.7961    2.2253   57.5425 H       1  ZINC000546115054    0.0900
     44 H44        -8.1852    3.2665   57.9351 H       1  ZINC000546115054    0.1100
     45 H45        -6.8605    0.1406   58.5206 H       1  ZINC000546115054    0.1200
     46 H46        -8.0982   -1.8220   59.3450 H       1  ZINC000546115054    0.1200
     47 H47       -10.5542   -1.8861   59.1824 H       1  ZINC000546115054    0.1200
     48 H48       -11.7728    0.0126   58.1960 H       1  ZINC000546115054    0.1200
     49 H49       -10.5355    1.9772   57.3757 H       1  ZINC000546115054    0.1200
     50 H50        -8.6470    6.8008   56.4640 H       1  ZINC000546115054    0.0600
     51 H51        -7.4810    6.9893   55.1323 H       1  ZINC000546115054    0.0700
     52 H52        -9.1092    6.3487   54.8056 H       1  ZINC000546115054    0.0800
     53 H53        -5.8152    4.6469   55.2011 H       1  ZINC000546115054    0.0600
     54 H54        -6.0170    5.6549   56.6542 H       1  ZINC000546115054    0.0800
     55 H55        -6.3172    3.9025   56.7379 H       1  ZINC000546115054    0.0700
@<TRIPOS>BOND
     1     1     2    1
     2     1    30    1
     3     1    31    1
     4     1    32    1
     5     2     3    1
     6     2    33    1
     7     2    34    1
     8     3     4    1
     9     4     5    1
    10     4    10    1
    11     4     6    1
    12     6     7    1
    13     6    35    1
    14     6    36    1
    15     7     8    1
    16     8     9    1
    17     8    37    1
    18     8    38    1
    19     9    10    1
    20     9    39    1
    21     9    40    1
    22    10    11    1
    23    10    12    1
    24    12    13   am
    25    12    41    1
    26    13    14    2
    27    13    15   am
    28    15    16    1
    29    15    42    1
    30    16    17    1
    31    16    18    1
    32    16    25    1
    33    18    19    1
    34    18    43    1
    35    18    44    1
    36    19    24   ar
    37    19    20   ar
    38    20    21   ar
    39    20    45    1
    40    21    22   ar
    41    21    46    1
    42    22    23   ar
    43    22    47    1
    44    23    24   ar
    45    23    48    1
    46    24    49    1
    47    25    26    2
    48    25    27   am
    49    27    28    1
    50    27    29    1
    51    28    50    1
    52    28    51    1
    53    28    52    1
    54    29    53    1
    55    29    54    1
    56    29    55    1
@<TRIPOS>SUBSTRUCTURE
     1 ZINC000546115054        1 TEMP              0 ****  ****    0 ROOT


##########                                Name:    ZINC000811540126
##########                DOCK_Rotatable_Bonds:                   7
##########                         Heavy_Atoms:                  21
##########                    Molecular_Weight:             397.212
##########                DOCK_Rotatable_Bonds:                   7
##########                       Formal_Charge:           0.0100001
##########                     HBond_Acceptors:                   4
##########                        HBond_Donors:                   3
##########                         Heavy_Atoms:                  21
##########                          Grid_Score:          -28.997005
##########                     Grid_vdw_energy:          -27.029427
##########                      Grid_es_energy:           -1.967578
##########           Internal_energy_repulsive:           13.962749

@<TRIPOS>MOLECULE
ZINC000811540126
 37 38 1 0 0
SMALL
USER_CHARGES


@<TRIPOS>ATOM
      1 C1         -5.5032    0.2919   50.4671 C.3     1  ZINC000811540126   -0.1600
      2 C2         -6.3823    1.4375   50.9730 C.3     1  ZINC000811540126    0.1200
      3 H3         -7.4174    1.2563   50.6834 H       1  ZINC000811540126    0.1000
      4 N4         -6.2902    1.5157   52.4330 N.am    1  ZINC000811540126   -0.7200
      5 C5         -7.3308    1.9848   53.1497 C.2     1  ZINC000811540126    0.5700
      6 O6         -8.3453    2.3446   52.5843 O.2     1  ZINC000811540126   -0.5100
      7 C7         -7.2387    2.0619   54.6201 C.ar    1  ZINC000811540126   -0.1600
      8 C8         -8.0332    1.2355   55.4179 C.ar    1  ZINC000811540126   -0.0400
      9 C9         -7.9423    1.3125   56.7915 C.ar    1  ZINC000811540126   -0.1200
     10 I10        -9.1348    0.0722   57.9868 I       1  ZINC000811540126   -0.0300
     11 C11        -7.0655    2.2063   57.3848 C.ar    1  ZINC000811540126   -0.0400
     12 C12        -6.2747    3.0293   56.6074 C.ar    1  ZINC000811540126   -0.1500
     13 C13        -6.3491    2.9610   55.2245 C.ar    1  ZINC000811540126    0.1900
     14 O14        -5.5724    3.7686   54.4597 O.3     1  ZINC000811540126   -0.4700
     15 C15        -5.9045    2.7556   50.3605 C.3     1  ZINC000811540126    0.1400
     16 H16        -6.2384    3.5869   50.9813 H       1  ZINC000811540126    0.1300
     17 O17        -6.4473    2.8946   49.0460 O.3     1  ZINC000811540126   -0.5400
     18 C18        -4.3993    2.7580   50.2852 C.ar    1  ZINC000811540126   -0.1200
     19 C19        -3.7675    2.5417   49.0749 C.ar    1  ZINC000811540126   -0.1100
     20 C20        -2.3869    2.5439   49.0057 C.ar    1  ZINC000811540126   -0.1100
     21 C21        -1.6381    2.7627   50.1470 C.ar    1  ZINC000811540126   -0.1200
     22 C22        -2.2699    2.9797   51.3572 C.ar    1  ZINC000811540126   -0.1100
     23 C23        -3.6505    2.9819   51.4254 C.ar    1  ZINC000811540126   -0.1100
     24 H24        -5.8436   -0.6472   50.9034 H       1  ZINC000811540126    0.0600
     25 H25        -5.5718    0.2338   49.3808 H       1  ZINC000811540126    0.0700
     26 H26        -4.4681    0.4730   50.7567 H       1  ZINC000811540126    0.0700
     27 H27        -5.4804    1.2297   52.8839 H       1  ZINC000811540126    0.3900
     28 H28        -8.7180    0.5374   54.9595 H       1  ZINC000811540126    0.1300
     29 H29        -7.0004    2.2600   58.4615 H       1  ZINC000811540126    0.1400
     30 H30        -5.5939    3.7237   57.0772 H       1  ZINC000811540126    0.1500
     31 H31        -4.7059    3.9599   54.8439 H       1  ZINC000811540126    0.4000
     32 H32        -7.3870    2.6757   48.9833 H       1  ZINC000811540126    0.3700
     33 H33        -4.3525    2.3708   48.1833 H       1  ZINC000811540126    0.1100
     34 H34        -1.8932    2.3743   48.0602 H       1  ZINC000811540126    0.1200
     35 H35        -0.5594    2.7636   50.0931 H       1  ZINC000811540126    0.1200
     36 H36        -1.6848    3.1504   52.2488 H       1  ZINC000811540126    0.1300
     37 H37        -4.1442    3.1515   52.3709 H       1  ZINC000811540126    0.1200
@<TRIPOS>BOND
     1     1     2    1
     2     1    24    1
     3     1    25    1
     4     1    26    1
     5     2     3    1
     6     2     4    1
     7     2    15    1
     8     4     5   am
     9     4    27    1
    10     5     6    2
    11     5     7    1
    12     7    13   ar
    13     7     8   ar
    14     8     9   ar
    15     8    28    1
    16     9    10    1
    17     9    11   ar
    18    11    12   ar
    19    11    29    1
    20    12    13   ar
    21    12    30    1
    22    13    14    1
    23    14    31    1
    24    15    16    1
    25    15    17    1
    26    15    18    1
    27    17    32    1
    28    18    23   ar
    29    18    19   ar
    30    19    20   ar
    31    19    33    1
    32    20    21   ar
    33    20    34    1
    34    21    22   ar
    35    21    35    1
    36    22    23   ar
    37    22    36    1
    38    23    37    1
@<TRIPOS>SUBSTRUCTURE
     1 ZINC000811540126        1 TEMP              0 ****  ****    0 ROOT


##########                                Name:    ZINC001098311495
##########                DOCK_Rotatable_Bonds:                   8
##########                         Heavy_Atoms:                  24
##########                    Molecular_Weight:             328.454
##########                DOCK_Rotatable_Bonds:                   8
##########                       Formal_Charge:          0.00999987
##########                     HBond_Acceptors:                   4
##########                        HBond_Donors:                   1
##########                         Heavy_Atoms:                  24
##########                          Grid_Score:          -28.969872
##########                     Grid_vdw_energy:          -28.567062
##########                      Grid_es_energy:           -0.402808
##########           Internal_energy_repulsive:           19.041622

@<TRIPOS>MOLECULE
ZINC001098311495
 52 54 1 0 0
SMALL
USER_CHARGES


@<TRIPOS>ATOM
      1 C1        -10.4301   -2.3534   56.7715 C.3     1  ZINC001098311495   -0.1500
      2 C2         -9.7187   -1.2162   57.5074 C.3     1  ZINC001098311495    0.0500
      3 O3         -9.4432   -0.1548   56.5911 O.3     1  ZINC001098311495   -0.2800
      4 C4         -8.7345    0.9000   57.0657 C.ar    1  ZINC001098311495    0.1900
      5 C5         -8.6034    1.0927   58.4327 C.ar    1  ZINC001098311495   -0.2200
      6 C6         -7.8871    2.1707   58.9143 C.ar    1  ZINC001098311495   -0.0500
      7 C7         -7.2894    3.0623   58.0389 C.ar    1  ZINC001098311495   -0.1700
      8 C8         -7.4043    2.8827   56.6772 C.ar    1  ZINC001098311495   -0.0500
      9 C9         -8.1263    1.7969   56.1765 C.ar    1  ZINC001098311495   -0.1800
     10 C10        -8.2532    1.5986   54.7200 C.2     1  ZINC001098311495    0.5600
     11 O11        -9.3519    1.4531   54.2198 O.2     1  ZINC001098311495   -0.5200
     12 N12        -7.1514    1.5786   53.9441 N.am    1  ZINC001098311495   -0.7200
     13 C13        -7.2776    1.3834   52.4976 C.3     1  ZINC001098311495    0.1600
     14 H14        -8.3250    1.4132   52.1975 H       1  ZINC001098311495    0.1000
     15 C15        -6.6220    0.0479   52.0686 C.3     1  ZINC001098311495   -0.1200
     16 C16        -5.4904    0.4941   51.0941 C.3     1  ZINC001098311495    0.0500
     17 H17        -4.6841   -0.2248   50.9486 H       1  ZINC001098311495    0.1100
     18 C18        -6.2129    0.9669   49.7967 C.3     1  ZINC001098311495   -0.1500
     19 C19        -6.8665    2.3069   50.2142 C.3     1  ZINC001098311495   -0.1500
     20 C20        -6.4547    2.4580   51.7251 C.3     1  ZINC001098311495    0.0400
     21 H21        -6.4948    3.4718   52.1235 H       1  ZINC001098311495    0.1200
     22 N22        -5.0926    1.8147   51.7000 N.3     1  ZINC001098311495   -0.4900
     23 C23        -4.1805    2.5478   50.8120 C.3     1  ZINC001098311495    0.0600
     24 C24        -2.9367    2.9286   51.5729 C.2     1  ZINC001098311495   -0.1600
     25 C25        -1.8326    3.2082   50.9254 C.2     1  ZINC001098311495   -0.1200
     26 C26        -0.5888    3.5889   51.6862 C.3     1  ZINC001098311495   -0.1200
     27 C27        -1.8066    3.1491   49.4198 C.3     1  ZINC001098311495   -0.1200
     28 H28       -11.3655   -1.9847   56.3506 H       1  ZINC001098311495    0.0700
     29 H29        -9.7913   -2.7227   55.9692 H       1  ZINC001098311495    0.0700
     30 H30       -10.6403   -3.1630   57.4704 H       1  ZINC001098311495    0.0800
     31 H31        -8.7833   -1.5849   57.9282 H       1  ZINC001098311495    0.0600
     32 H32       -10.3575   -0.8469   58.3097 H       1  ZINC001098311495    0.0600
     33 H33        -9.0662    0.4016   59.1215 H       1  ZINC001098311495    0.1300
     34 H34        -7.7919    2.3191   59.9798 H       1  ZINC001098311495    0.1300
     35 H35        -6.7307    3.9020   58.4252 H       1  ZINC001098311495    0.1300
     36 H36        -6.9370    3.5806   55.9983 H       1  ZINC001098311495    0.1300
     37 H37        -6.2748    1.6934   54.3434 H       1  ZINC001098311495    0.4000
     38 H38        -7.3439   -0.5861   51.5538 H       1  ZINC001098311495    0.0800
     39 H39        -6.2031   -0.4688   52.9321 H       1  ZINC001098311495    0.0800
     40 H40        -5.4939    1.1246   48.9928 H       1  ZINC001098311495    0.0700
     41 H41        -6.9735    0.2460   49.4966 H       1  ZINC001098311495    0.0800
     42 H42        -6.4714    3.1290   49.6173 H       1  ZINC001098311495    0.0700
     43 H43        -7.9510    2.2505   50.1210 H       1  ZINC001098311495    0.0800
     44 H44        -4.6740    3.4491   50.4482 H       1  ZINC001098311495    0.0500
     45 H45        -3.9100    1.9153   49.9665 H       1  ZINC001098311495    0.0800
     46 H46        -2.9553    2.9709   52.6518 H       1  ZINC001098311495    0.1100
     47 H47        -0.5649    4.6696   51.8260 H       1  ZINC001098311495    0.0700
     48 H48         0.2911    3.2757   51.1241 H       1  ZINC001098311495    0.0600
     49 H49        -0.5928    3.0967   52.6587 H       1  ZINC001098311495    0.0600
     50 H50        -1.6118    2.1256   49.0996 H       1  ZINC001098311495    0.0700
     51 H51        -2.7693    3.4758   49.0266 H       1  ZINC001098311495    0.0600
     52 H52        -1.0198    3.8033   49.0441 H       1  ZINC001098311495    0.0600
@<TRIPOS>BOND
     1     1     2    1
     2     1    28    1
     3     1    29    1
     4     1    30    1
     5     2     3    1
     6     2    31    1
     7     2    32    1
     8     3     4    1
     9     4     9   ar
    10     4     5   ar
    11     5     6   ar
    12     5    33    1
    13     6     7   ar
    14     6    34    1
    15     7     8   ar
    16     7    35    1
    17     8     9   ar
    18     8    36    1
    19     9    10    1
    20    10    11    2
    21    10    12   am
    22    12    13    1
    23    12    37    1
    24    13    14    1
    25    13    20    1
    26    13    15    1
    27    15    16    1
    28    15    38    1
    29    15    39    1
    30    16    17    1
    31    16    22    1
    32    16    18    1
    33    18    19    1
    34    18    40    1
    35    18    41    1
    36    19    20    1
    37    19    42    1
    38    19    43    1
    39    20    21    1
    40    20    22    1
    41    22    23    1
    42    23    24    1
    43    23    44    1
    44    23    45    1
    45    24    25    2
    46    24    46    1
    47    25    26    1
    48    25    27    1
    49    26    47    1
    50    26    48    1
    51    26    49    1
    52    27    50    1
    53    27    51    1
    54    27    52    1
@<TRIPOS>SUBSTRUCTURE
     1 ZINC001098311495        1 TEMP              0 ****  ****    0 ROOT


##########                                Name:    ZINC000080099940
##########                DOCK_Rotatable_Bonds:                   4
##########                         Heavy_Atoms:                  26
##########                    Molecular_Weight:             343.388
##########                DOCK_Rotatable_Bonds:                   4
##########                       Formal_Charge:        -3.42727e-07
##########                     HBond_Acceptors:                   6
##########                        HBond_Donors:                   1
##########                         Heavy_Atoms:                  26
##########                          Grid_Score:          -28.964401
##########                     Grid_vdw_energy:          -29.567984
##########                      Grid_es_energy:            0.603582
##########           Internal_energy_repulsive:            2.428681

@<TRIPOS>MOLECULE
ZINC000080099940
 43 46 1 0 0
SMALL
USER_CHARGES


@<TRIPOS>ATOM
      1 C1          2.0380    2.6367   45.9661 C.3     1  ZINC000080099940   -0.1100
      2 C2          0.9817    2.8117   47.0268 C.2     1  ZINC000080099940   -0.0700
      3 C3         -0.1957    2.1370   46.9362 C.2     1  ZINC000080099940   -0.0900
      4 C4         -1.1722    2.3134   47.9381 C.2     1  ZINC000080099940    0.2300
      5 N5         -2.3809    1.7963   48.1011 N.2     1  ZINC000080099940   -0.4800
      6 C6         -2.9203    2.2863   49.2286 C.2     1  ZINC000080099940    0.1000
      7 C7         -4.2630    1.9541   49.7654 C.ar    1  ZINC000080099940   -0.0200
      8 C8         -5.0797    2.9619   50.2756 C.ar    1  ZINC000080099940   -0.0800
      9 C9         -6.3272    2.6510   50.7735 C.ar    1  ZINC000080099940   -0.1200
     10 C10        -6.7705    1.3336   50.7674 C.ar    1  ZINC000080099940    0.1500
     11 N11        -8.0352    1.0207   51.2731 N.am    1  ZINC000080099940   -0.6500
     12 C12        -8.2080    0.8521   52.5990 C.2     1  ZINC000080099940    0.5700
     13 O13        -7.2643    0.9720   53.3548 O.2     1  ZINC000080099940   -0.5000
     14 C14        -9.5510    0.5198   53.1360 C.ar    1  ZINC000080099940    0.1300
     15 C15        -9.7053    0.1233   54.4648 C.ar    1  ZINC000080099940   -0.1700
     16 C16       -10.9828   -0.1758   54.9172 C.ar    1  ZINC000080099940    0.1600
     17 N17       -12.0018   -0.0757   54.0812 N.ar    1  ZINC000080099940   -0.5000
     18 C18       -11.8208    0.3024   52.8304 C.ar    1  ZINC000080099940    0.3200
     19 C19       -13.0146    0.4013   51.9160 C.3     1  ZINC000080099940   -0.0900
     20 N20       -10.6292    0.6005   52.3594 N.ar    1  ZINC000080099940   -0.5000
     21 C21        -5.9579    0.3272   50.2588 C.ar    1  ZINC000080099940   -0.1400
     22 C22        -4.7118    0.6344   49.7550 C.ar    1  ZINC000080099940   -0.0700
     23 C23        -2.0231    3.1404   49.7958 C.2     1  ZINC000080099940   -0.0900
     24 N24        -0.9212    3.1605   48.9869 N.pl3   1  ZINC000080099940   -0.3600
     25 C25         0.2653    3.8314   49.0650 C.2     1  ZINC000080099940    0.0600
     26 C26         1.2113    3.6679   48.1165 C.2     1  ZINC000080099940   -0.1400
     27 H27         2.9051    3.2497   46.2122 H       1  ZINC000080099940    0.0700
     28 H28         2.3352    1.5892   45.9187 H       1  ZINC000080099940    0.0800
     29 H29         1.6375    2.9449   45.0003 H       1  ZINC000080099940    0.0800
     30 H30        -0.3813    1.4730   46.1048 H       1  ZINC000080099940    0.1500
     31 H31        -4.7354    3.9855   50.2811 H       1  ZINC000080099940    0.1300
     32 H32        -6.9603    3.4316   51.1688 H       1  ZINC000080099940    0.1400
     33 H33        -8.7887    0.9251   50.6698 H       1  ZINC000080099940    0.4200
     34 H34        -8.8529    0.0506   55.1239 H       1  ZINC000080099940    0.1600
     35 H35       -11.1424   -0.4865   55.9392 H       1  ZINC000080099940    0.1800
     36 H36       -13.4338    1.4058   51.9730 H       1  ZINC000080099940    0.0900
     37 H37       -12.7056    0.1940   50.8914 H       1  ZINC000080099940    0.0900
     38 H38       -13.7679   -0.3247   52.2222 H       1  ZINC000080099940    0.0900
     39 H39        -6.3044   -0.6957   50.2550 H       1  ZINC000080099940    0.1300
     40 H40        -4.0810   -0.1479   49.3596 H       1  ZINC000080099940    0.1400
     41 H41        -2.1573    3.6969   50.7116 H       1  ZINC000080099940    0.1900
     42 H42         0.4504    4.4956   49.8962 H       1  ZINC000080099940    0.1700
     43 H43         2.1456    4.2046   48.1910 H       1  ZINC000080099940    0.1500
@<TRIPOS>BOND
     1     1     2    1
     2     1    27    1
     3     1    28    1
     4     1    29    1
     5     2    26    1
     6     2     3    2
     7     3     4    1
     8     3    30    1
     9     4    24    1
    10     4     5    2
    11     5     6    1
    12     6     7    1
    13     6    23    2
    14     7    22   ar
    15     7     8   ar
    16     8     9   ar
    17     8    31    1
    18     9    10   ar
    19     9    32    1
    20    10    11    1
    21    10    21   ar
    22    11    12   am
    23    11    33    1
    24    12    13    2
    25    12    14    1
    26    14    20   ar
    27    14    15   ar
    28    15    16   ar
    29    15    34    1
    30    16    17   ar
    31    16    35    1
    32    17    18   ar
    33    18    19    1
    34    18    20   ar
    35    19    36    1
    36    19    37    1
    37    19    38    1
    38    21    22   ar
    39    21    39    1
    40    22    40    1
    41    23    24    1
    42    23    41    1
    43    24    25    1
    44    25    26    2
    45    25    42    1
    46    26    43    1
@<TRIPOS>SUBSTRUCTURE
     1 ZINC000080099940        1 TEMP              0 ****  ****    0 ROOT


##########                                Name:    ZINC000643274279
##########                DOCK_Rotatable_Bonds:                   6
##########                         Heavy_Atoms:                  29
##########                    Molecular_Weight:             392.454
##########                DOCK_Rotatable_Bonds:                   6
##########                       Formal_Charge:         -0.00999939
##########                     HBond_Acceptors:                   6
##########                        HBond_Donors:                   2
##########                         Heavy_Atoms:                  29
##########                          Grid_Score:          -28.960501
##########                     Grid_vdw_energy:          -28.729866
##########                      Grid_es_energy:           -0.230635
##########           Internal_energy_repulsive:           11.263992

@<TRIPOS>MOLECULE
ZINC000643274279
 53 56 1 0 0
SMALL
USER_CHARGES


@<TRIPOS>ATOM
      1 O1         -9.2350   -1.2275   52.9942 O.2     1  ZINC000643274279   -0.4900
      2 C2         -9.6733   -0.5871   53.9275 C.2     1  ZINC000643274279    0.5100
      3 N3         -9.5022    0.7491   53.9675 N.am    1  ZINC000643274279   -0.6400
      4 C4         -8.8149    1.3967   52.9372 C.ar    1  ZINC000643274279    0.1300
      5 C5         -9.4136    2.4542   52.2614 C.ar    1  ZINC000643274279   -0.1000
      6 C6         -8.7453    3.0940   51.2317 C.ar    1  ZINC000643274279   -0.1000
      7 C7         -7.4814    2.6804   50.8730 C.ar    1  ZINC000643274279   -0.0600
      8 C8         -6.7733    3.3330   49.6987 C.3     1  ZINC000643274279   -0.0900
      9 C9         -5.5729    4.1210   50.2106 C.3     1  ZINC000643274279   -0.1200
     10 C10        -4.3333    3.2450   50.3119 C.3     1  ZINC000643274279   -0.1100
     11 C11        -4.3793    2.2382   51.4334 C.3     1  ZINC000643274279   -0.1600
     12 C12        -5.4915    1.2367   51.1896 C.2     1  ZINC000643274279    0.4100
     13 O13        -5.2626    0.1471   50.7093 O.2     1  ZINC000643274279   -0.4400
     14 C14        -6.8606    1.6367   51.5589 C.ar    1  ZINC000643274279   -0.1300
     15 C15        -7.5344    0.9869   52.5948 C.ar    1  ZINC000643274279   -0.1000
     16 C16       -10.4078   -1.2792   55.0285 C.2     1  ZINC000643274279    0.5200
     17 O17        -9.8464   -2.1236   55.6953 O.2     1  ZINC000643274279   -0.5000
     18 N18       -11.6940   -0.9661   55.2815 N.am    1  ZINC000643274279   -0.5800
     19 C19       -12.4939    0.0353   54.5529 C.3     1  ZINC000643274279    0.0900
     20 C20       -13.9648   -0.4031   54.7629 C.3     1  ZINC000643274279   -0.1400
     21 C21       -13.9297   -0.9212   56.2249 C.3     1  ZINC000643274279   -0.1200
     22 C22       -12.5337   -1.5712   56.3257 C.3     1  ZINC000643274279    0.1800
     23 H23       -12.6133   -2.6467   56.1674 H       1  ZINC000643274279    0.0900
     24 C24       -11.9368   -1.2957   57.6817 C.ar    1  ZINC000643274279   -0.1000
     25 C25       -11.1684   -0.1637   57.8805 C.ar    1  ZINC000643274279   -0.0900
     26 C26       -10.6200    0.0911   59.1226 C.ar    1  ZINC000643274279   -0.1400
     27 C27       -10.8414   -0.7898   60.1711 C.ar    1  ZINC000643274279    0.1100
     28 O28       -10.3035   -0.5412   61.3941 O.3     1  ZINC000643274279   -0.5000
     29 C29       -11.6132   -1.9248   59.9692 C.ar    1  ZINC000643274279   -0.1400
     30 C30       -12.1633   -2.1726   58.7266 C.ar    1  ZINC000643274279   -0.0900
     31 H31        -9.8560    1.2613   54.7113 H       1  ZINC000643274279    0.4200
     32 H32       -10.4054    2.7778   52.5409 H       1  ZINC000643274279    0.1400
     33 H33        -9.2141    3.9155   50.7105 H       1  ZINC000643274279    0.1400
     34 H34        -6.4345    2.5638   49.0047 H       1  ZINC000643274279    0.0800
     35 H35        -7.4607    4.0075   49.1882 H       1  ZINC000643274279    0.0800
     36 H36        -5.3711    4.9464   49.5277 H       1  ZINC000643274279    0.0800
     37 H37        -5.8056    4.5245   51.1961 H       1  ZINC000643274279    0.0700
     38 H38        -4.2091    2.7098   49.3705 H       1  ZINC000643274279    0.0700
     39 H39        -3.4654    3.8879   50.4585 H       1  ZINC000643274279    0.0800
     40 H40        -3.4256    1.7132   51.4872 H       1  ZINC000643274279    0.0900
     41 H41        -4.5587    2.7552   52.3761 H       1  ZINC000643274279    0.0900
     42 H42        -7.0646    0.1700   53.1223 H       1  ZINC000643274279    0.1300
     43 H43       -12.3306    1.0285   54.9711 H       1  ZINC000643274279    0.0800
     44 H44       -12.2421    0.0232   53.4924 H       1  ZINC000643274279    0.1000
     45 H45       -14.6428    0.4447   54.6649 H       1  ZINC000643274279    0.0900
     46 H46       -14.2370   -1.2010   54.0720 H       1  ZINC000643274279    0.0800
     47 H47       -14.0262   -0.0950   56.9293 H       1  ZINC000643274279    0.0800
     48 H48       -14.7109   -1.6633   56.3899 H       1  ZINC000643274279    0.0900
     49 H49       -10.9962    0.5219   57.0639 H       1  ZINC000643274279    0.1200
     50 H50       -10.0192    0.9752   59.2771 H       1  ZINC000643274279    0.1300
     51 H51        -9.7897    0.2768   61.4389 H       1  ZINC000643274279    0.3900
     52 H52       -11.7867   -2.6123   60.7839 H       1  ZINC000643274279    0.1300
     53 H53       -12.7645   -3.0557   58.5689 H       1  ZINC000643274279    0.1300
@<TRIPOS>BOND
     1     1     2    2
     2     2     3   am
     3     2    16    1
     4     3     4    1
     5     3    31    1
     6     4    15   ar
     7     4     5   ar
     8     5     6   ar
     9     5    32    1
    10     6     7   ar
    11     6    33    1
    12     7    14   ar
    13     7     8    1
    14     8     9    1
    15     8    34    1
    16     8    35    1
    17     9    10    1
    18     9    36    1
    19     9    37    1
    20    10    11    1
    21    10    38    1
    22    10    39    1
    23    11    12    1
    24    11    40    1
    25    11    41    1
    26    12    13    2
    27    12    14    1
    28    14    15   ar
    29    15    42    1
    30    16    17    2
    31    16    18   am
    32    18    22    1
    33    18    19    1
    34    19    20    1
    35    19    43    1
    36    19    44    1
    37    20    21    1
    38    20    45    1
    39    20    46    1
    40    21    22    1
    41    21    47    1
    42    21    48    1
    43    22    23    1
    44    22    24    1
    45    24    30   ar
    46    24    25   ar
    47    25    26   ar
    48    25    49    1
    49    26    27   ar
    50    26    50    1
    51    27    28    1
    52    27    29   ar
    53    28    51    1
    54    29    30   ar
    55    29    52    1
    56    30    53    1
@<TRIPOS>SUBSTRUCTURE
     1 ZINC000643274279        1 TEMP              0 ****  ****    0 ROOT


##########                                Name:    ZINC001018118384
##########                DOCK_Rotatable_Bonds:                   5
##########                         Heavy_Atoms:                  25
##########                    Molecular_Weight:             347.374
##########                DOCK_Rotatable_Bonds:                   5
##########                       Formal_Charge:           0.0299997
##########                     HBond_Acceptors:                   9
##########                        HBond_Donors:                   2
##########                         Heavy_Atoms:                  25
##########                          Grid_Score:          -28.958029
##########                     Grid_vdw_energy:          -26.005634
##########                      Grid_es_energy:           -2.952394
##########           Internal_energy_repulsive:           97.502121

@<TRIPOS>MOLECULE
ZINC001018118384
 46 48 1 0 0
SMALL
USER_CHARGES


@<TRIPOS>ATOM
      1 C1         -1.4234    3.4535   55.6509 C.3     1  ZINC001018118384   -0.0700
      2 C2         -2.7590    3.7352   55.0122 C.2     1  ZINC001018118384    0.2200
      3 N3         -2.9473    4.0590   53.7655 N.2     1  ZINC001018118384   -0.4600
      4 C4         -4.2767    4.2352   53.5538 C.2     1  ZINC001018118384   -0.0700
      5 C5         -4.9136    4.6075   52.2786 C.2     1  ZINC001018118384    0.6100
      6 O6         -5.3456    5.7334   52.1205 O.2     1  ZINC001018118384   -0.5400
      7 N7         -5.0176    3.7004   51.2872 N.am    1  ZINC001018118384   -0.5900
      8 C8         -4.5059    2.3347   51.4654 C.3     1  ZINC001018118384    0.0700
      9 C9         -5.6273    1.3420   51.1430 C.3     1  ZINC001018118384    0.1300
     10 H10        -5.2346    0.3258   51.1779 H       1  ZINC001018118384    0.1100
     11 N11        -6.7039    1.4844   52.1263 N.am    1  ZINC001018118384   -0.7000
     12 C12        -7.2513    0.3891   52.6894 C.2     1  ZINC001018118384    0.6000
     13 O13        -6.8531   -0.7164   52.3805 O.2     1  ZINC001018118384   -0.4900
     14 C14        -8.3393    0.5332   53.6855 C.2     1  ZINC001018118384    0.0300
     15 C15        -8.8108    1.7021   54.2047 C.2     1  ZINC001018118384   -0.2300
     16 C16        -9.8379    1.2917   55.1005 C.2     1  ZINC001018118384    0.4800
     17 O17       -10.5414    2.0086   55.7927 O.2     1  ZINC001018118384   -0.5200
     18 N18        -9.8724   -0.0540   55.0244 N.am    1  ZINC001018118384   -0.4500
     19 C19       -10.7898   -0.9063   55.7847 C.3     1  ZINC001018118384    0.1100
     20 O20        -9.0479   -0.4622   54.2397 O.3     1  ZINC001018118384    0.0000
     21 C21        -6.1721    1.6313   49.7425 C.3     1  ZINC001018118384   -0.1300
     22 C22        -6.7532    3.0465   49.7016 C.3     1  ZINC001018118384   -0.1300
     23 C23        -5.6501    4.0567   50.0099 C.3     1  ZINC001018118384    0.1400
     24 H24        -4.9009    4.0325   49.2185 H       1  ZINC001018118384    0.0700
     25 C25        -6.2517    5.4604   50.1038 C.3     1  ZINC001018118384   -0.1400
     26 C26        -4.9155    4.0042   54.7370 C.2     1  ZINC001018118384    0.0400
     27 N27        -3.9611    3.6864   55.6431 N.pl3   1  ZINC001018118384   -0.5600
     28 H28        -1.1917    2.3927   55.5560 H       1  ZINC001018118384    0.0900
     29 H29        -0.6514    4.0399   55.1527 H       1  ZINC001018118384    0.1000
     30 H30        -1.4611    3.7242   56.7061 H       1  ZINC001018118384    0.0800
     31 H31        -3.6656    2.1684   50.7913 H       1  ZINC001018118384    0.0800
     32 H32        -4.1819    2.1976   52.4971 H       1  ZINC001018118384    0.1500
     33 H33        -7.0227    2.3669   52.3720 H       1  ZINC001018118384    0.4100
     34 H34        -8.4808    2.7071   53.9871 H       1  ZINC001018118384    0.1900
     35 H35       -11.7048   -1.0570   55.2118 H       1  ZINC001018118384    0.0800
     36 H36       -10.3172   -1.8700   55.9748 H       1  ZINC001018118384    0.0900
     37 H37       -11.0300   -0.4261   56.7333 H       1  ZINC001018118384    0.1100
     38 H38        -5.3649    1.5490   49.0147 H       1  ZINC001018118384    0.0900
     39 H39        -6.9534    0.9107   49.5009 H       1  ZINC001018118384    0.0800
     40 H40        -7.1622    3.2434   48.7106 H       1  ZINC001018118384    0.0800
     41 H41        -7.5439    3.1368   50.4463 H       1  ZINC001018118384    0.0600
     42 H42        -7.0110    5.4786   50.8855 H       1  ZINC001018118384    0.0700
     43 H43        -5.4661    6.1770   50.3435 H       1  ZINC001018118384    0.0800
     44 H44        -6.7064    5.7254   49.1493 H       1  ZINC001018118384    0.0400
     45 H45        -5.9791    4.0598   54.9155 H       1  ZINC001018118384    0.1900
     46 H46        -4.1086    3.4693   56.5769 H       1  ZINC001018118384    0.4300
@<TRIPOS>BOND
     1     1     2    1
     2     1    28    1
     3     1    29    1
     4     1    30    1
     5     2    27    1
     6     2     3    2
     7     3     4    1
     8     4     5    1
     9     4    26    2
    10     5     6    2
    11     5     7   am
    12     7    23    1
    13     7     8    1
    14     8     9    1
    15     8    31    1
    16     8    32    1
    17     9    10    1
    18     9    11    1
    19     9    21    1
    20    11    12   am
    21    11    33    1
    22    12    13    2
    23    12    14    1
    24    14    20    1
    25    14    15    2
    26    15    16    1
    27    15    34    1
    28    16    17    2
    29    16    18   am
    30    18    19    1
    31    18    20    1
    32    19    35    1
    33    19    36    1
    34    19    37    1
    35    21    22    1
    36    21    38    1
    37    21    39    1
    38    22    23    1
    39    22    40    1
    40    22    41    1
    41    23    24    1
    42    23    25    1
    43    25    42    1
    44    25    43    1
    45    25    44    1
    46    26    27    1
    47    26    45    1
    48    27    46    1
@<TRIPOS>SUBSTRUCTURE
     1 ZINC001018118384        1 TEMP              0 ****  ****    0 ROOT


##########                                Name:    ZINC000951315041
##########                DOCK_Rotatable_Bonds:                   5
##########                         Heavy_Atoms:                  25
##########                    Molecular_Weight:             340.382
##########                DOCK_Rotatable_Bonds:                   5
##########                       Formal_Charge:          0.00999974
##########                     HBond_Acceptors:                   7
##########                        HBond_Donors:                   1
##########                         Heavy_Atoms:                  25
##########                          Grid_Score:          -28.955219
##########                     Grid_vdw_energy:          -29.199121
##########                      Grid_es_energy:            0.243902
##########           Internal_energy_repulsive:            9.918103

@<TRIPOS>MOLECULE
ZINC000951315041
 45 47 1 0 0
SMALL
USER_CHARGES


@<TRIPOS>ATOM
      1 C1        -16.4057   -2.7927   53.3852 C.3     1  ZINC000951315041    0.0500
      2 N2        -15.7351   -3.7669   54.2497 N.am    1  ZINC000951315041   -0.4900
      3 C3        -15.2863   -3.3811   55.4587 C.2     1  ZINC000951315041    0.1700
      4 C4        -14.6514   -4.2818   56.2893 C.2     1  ZINC000951315041   -0.2400
      5 C5        -14.1614   -3.8543   57.6127 C.2     1  ZINC000951315041    0.5800
      6 O6        -14.8385   -4.0494   58.6039 O.2     1  ZINC000951315041   -0.5200
      7 N7        -12.9633   -3.2474   57.7240 N.am    1  ZINC000951315041   -0.6000
      8 C8        -12.4616   -2.8158   59.0358 C.3     1  ZINC000951315041    0.1100
      9 C9        -12.0903   -1.3316   58.9577 C.3     1  ZINC000951315041   -0.1300
     10 C10       -11.1054   -1.1162   57.8062 C.3     1  ZINC000951315041   -0.1300
     11 C11       -11.7659   -1.5189   56.4857 C.3     1  ZINC000951315041    0.1300
     12 H12       -12.6678   -0.9259   56.3343 H       1  ZINC000951315041    0.1000
     13 N13       -10.8338   -1.2821   55.3807 N.am    1  ZINC000951315041   -0.7200
     14 C14       -10.7849   -0.0727   54.7878 C.2     1  ZINC000951315041    0.5700
     15 O15       -11.5151    0.8210   55.1691 O.2     1  ZINC000951315041   -0.5200
     16 C16        -9.8429    0.1668   53.6737 C.ar    1  ZINC000951315041   -0.1900
     17 C17        -9.8596    1.3803   52.9760 C.ar    1  ZINC000951315041   -0.0100
     18 C18        -8.9569    1.5546   51.9416 C.ar    1  ZINC000951315041   -0.1800
     19 C19        -8.0755    0.5344   51.6332 C.ar    1  ZINC000951315041    0.1300
     20 N20        -8.0828   -0.5994   52.3082 N.ar    1  ZINC000951315041   -0.4900
     21 C21        -8.9181   -0.8107   53.3038 C.ar    1  ZINC000951315041    0.1400
     22 C22       -12.1311   -3.0103   56.5365 C.3     1  ZINC000951315041    0.1000
     23 C23       -14.4743   -5.6198   55.8610 C.2     1  ZINC000951315041    0.0100
     24 C24       -14.9364   -5.9866   54.6358 C.2     1  ZINC000951315041   -0.2300
     25 C25       -15.5823   -5.0343   53.8251 C.2     1  ZINC000951315041    0.5100
     26 O26       -15.9989   -5.3585   52.7256 O.2     1  ZINC000951315041   -0.5400
     27 H27       -16.7040   -3.2771   52.4553 H       1  ZINC000951315041    0.1100
     28 H28       -17.2891   -2.4045   53.8922 H       1  ZINC000951315041    0.0800
     29 H29       -15.7231   -1.9721   53.1648 H       1  ZINC000951315041    0.0800
     30 H30       -15.4238   -2.3595   55.7806 H       1  ZINC000951315041    0.1700
     31 H31       -13.2366   -2.9594   59.7887 H       1  ZINC000951315041    0.1000
     32 H32       -11.5800   -3.3997   59.3000 H       1  ZINC000951315041    0.0700
     33 H33       -12.9891   -0.7404   58.7831 H       1  ZINC000951315041    0.0700
     34 H34       -11.6274   -1.0226   59.8949 H       1  ZINC000951315041    0.0900
     35 H35       -10.8206   -0.0649   57.7640 H       1  ZINC000951315041    0.0800
     36 H36       -10.2171   -1.7267   57.9691 H       1  ZINC000951315041    0.0700
     37 H37       -10.2519   -1.9957   55.0755 H       1  ZINC000951315041    0.4000
     38 H38       -10.5594    2.1602   53.2379 H       1  ZINC000951315041    0.1500
     39 H39        -8.9411    2.4775   51.3809 H       1  ZINC000951315041    0.1500
     40 H40        -7.3699    0.6677   50.8265 H       1  ZINC000951315041    0.1600
     41 H41        -8.8935   -1.7520   53.8328 H       1  ZINC000951315041    0.1600
     42 H42       -11.2212   -3.6076   56.5962 H       1  ZINC000951315041    0.0700
     43 H43       -12.6898   -3.2804   55.6405 H       1  ZINC000951315041    0.0900
     44 H44       -13.9794   -6.3382   56.4977 H       1  ZINC000951315041    0.1400
     45 H45       -14.8117   -7.0018   54.2889 H       1  ZINC000951315041    0.1600
@<TRIPOS>BOND
     1     1     2    1
     2     1    27    1
     3     1    28    1
     4     1    29    1
     5     2    25   am
     6     2     3    1
     7     3     4    2
     8     3    30    1
     9     4     5    1
    10     4    23    1
    11     5     6    2
    12     5     7   am
    13     7    22    1
    14     7     8    1
    15     8     9    1
    16     8    31    1
    17     8    32    1
    18     9    10    1
    19     9    33    1
    20     9    34    1
    21    10    11    1
    22    10    35    1
    23    10    36    1
    24    11    12    1
    25    11    13    1
    26    11    22    1
    27    13    14   am
    28    13    37    1
    29    14    15    2
    30    14    16    1
    31    16    21   ar
    32    16    17   ar
    33    17    18   ar
    34    17    38    1
    35    18    19   ar
    36    18    39    1
    37    19    20   ar
    38    19    40    1
    39    20    21   ar
    40    21    41    1
    41    22    42    1
    42    22    43    1
    43    23    24    2
    44    23    44    1
    45    24    25    1
    46    24    45    1
    47    25    26    2
@<TRIPOS>SUBSTRUCTURE
     1 ZINC000951315041        1 TEMP              0 ****  ****    0 ROOT


##########                                Name:    ZINC000516003207
##########                DOCK_Rotatable_Bonds:                   5
##########                         Heavy_Atoms:                  24
##########                    Molecular_Weight:             342.462
##########                DOCK_Rotatable_Bonds:                   5
##########                       Formal_Charge:          -0.0200001
##########                     HBond_Acceptors:                   5
##########                        HBond_Donors:                   1
##########                         Heavy_Atoms:                  24
##########                          Grid_Score:          -28.948385
##########                     Grid_vdw_energy:          -27.831545
##########                      Grid_es_energy:           -1.116841
##########           Internal_energy_repulsive:           11.476724

@<TRIPOS>MOLECULE
ZINC000516003207
 46 49 1 0 0
SMALL
USER_CHARGES


@<TRIPOS>ATOM
      1 C1         -2.4174    2.1771   47.7058 C.3     1  ZINC000516003207    0.0300
      2 O2         -3.2532    1.4529   48.6109 O.3     1  ZINC000516003207   -0.3600
      3 C3         -4.2875    2.2407   49.2037 C.3     1  ZINC000516003207    0.0900
      4 H4         -4.5584    3.1075   48.6010 H       1  ZINC000516003207    0.0800
      5 C5         -5.4975    1.4157   49.6783 C.3     1  ZINC000516003207   -0.1700
      6 C6         -4.7787    1.2759   51.0325 C.3     1  ZINC000516003207    0.1500
      7 H7         -4.1278    0.4039   51.0944 H       1  ZINC000516003207    0.1200
      8 N8         -5.6706    1.4043   52.1877 N.am    1  ZINC000516003207   -0.7200
      9 C9         -6.6973    0.5454   52.3448 C.2     1  ZINC000516003207    0.5600
     10 O10        -6.8824   -0.3365   51.5291 O.2     1  ZINC000516003207   -0.5300
     11 C11        -7.5987    0.6760   53.5098 C.ar    1  ZINC000516003207   -0.1400
     12 C12        -8.6711   -0.2041   53.6669 C.ar    1  ZINC000516003207   -0.0800
     13 C13        -9.5132   -0.0822   54.7543 C.ar    1  ZINC000516003207   -0.1200
     14 C14        -9.3004    0.9088   55.6922 C.ar    1  ZINC000516003207   -0.0800
     15 C15        -8.2323    1.7940   55.5468 C.ar    1  ZINC000516003207   -0.0300
     16 C16        -8.0062    2.8577   56.5559 C.2     1  ZINC000516003207    0.1100
     17 C17        -8.7926    3.0208   57.6388 C.2     1  ZINC000516003207   -0.2600
     18 S18        -8.1688    4.3871   58.5595 S.3     1  ZINC000516003207    0.1400
     19 C19        -6.9215    4.6076   57.4119 C.2     1  ZINC000516003207    0.0600
     20 C20        -5.8630    5.6776   57.4884 C.3     1  ZINC000516003207   -0.0800
     21 N21        -7.0100    3.7279   56.4752 N.2     1  ZINC000516003207   -0.4700
     22 C22        -7.3764    1.6743   54.4569 C.ar    1  ZINC000516003207   -0.0300
     23 C23        -4.0404    2.5703   50.6762 C.3     1  ZINC000516003207   -0.1100
     24 C24        -2.6308    2.8465   51.2004 C.3     1  ZINC000516003207   -0.1200
     25 C25        -2.9945    4.3411   51.1391 C.3     1  ZINC000516003207   -0.1400
     26 C26        -4.4675    3.9132   51.2699 C.3     1  ZINC000516003207   -0.1200
     27 H27        -1.9332    2.9975   48.2357 H       1  ZINC000516003207    0.0400
     28 H28        -1.6582    1.5092   47.2988 H       1  ZINC000516003207    0.0900
     29 H29        -3.0232    2.5770   46.8927 H       1  ZINC000516003207    0.0400
     30 H30        -6.4225    1.9898   49.7329 H       1  ZINC000516003207    0.0900
     31 H31        -5.6160    0.4708   49.1480 H       1  ZINC000516003207    0.0800
     32 H32        -5.5221    2.1072   52.8393 H       1  ZINC000516003207    0.4000
     33 H33        -8.8425   -0.9811   52.9367 H       1  ZINC000516003207    0.1300
     34 H34       -10.3421   -0.7647   54.8716 H       1  ZINC000516003207    0.1400
     35 H35        -9.9631    0.9991   56.5403 H       1  ZINC000516003207    0.1300
     36 H36        -9.6526    2.4203   57.8960 H       1  ZINC000516003207    0.1800
     37 H37        -6.0200    6.2806   58.3827 H       1  ZINC000516003207    0.0800
     38 H38        -4.8784    5.2121   57.5323 H       1  ZINC000516003207    0.0900
     39 H39        -5.9250    6.3138   56.6055 H       1  ZINC000516003207    0.0900
     40 H40        -6.5481    2.3575   54.3402 H       1  ZINC000516003207    0.1500
     41 H41        -2.4605    2.4788   52.2123 H       1  ZINC000516003207    0.0800
     42 H42        -1.8416    2.5594   50.5055 H       1  ZINC000516003207    0.0800
     43 H43        -2.6295    4.9139   51.9915 H       1  ZINC000516003207    0.0700
     44 H44        -2.7594    4.8082   50.1827 H       1  ZINC000516003207    0.0800
     45 H45        -5.1457    4.4783   50.6304 H       1  ZINC000516003207    0.0700
     46 H46        -4.8135    3.8453   52.3013 H       1  ZINC000516003207    0.0900
@<TRIPOS>BOND
     1     1     2    1
     2     1    27    1
     3     1    28    1
     4     1    29    1
     5     2     3    1
     6     3     4    1
     7     3    23    1
     8     3     5    1
     9     5     6    1
    10     5    30    1
    11     5    31    1
    12     6     7    1
    13     6     8    1
    14     6    23    1
    15     8     9   am
    16     8    32    1
    17     9    10    2
    18     9    11    1
    19    11    22   ar
    20    11    12   ar
    21    12    13   ar
    22    12    33    1
    23    13    14   ar
    24    13    34    1
    25    14    15   ar
    26    14    35    1
    27    15    16    1
    28    15    22   ar
    29    16    21    1
    30    16    17    2
    31    17    18    1
    32    17    36    1
    33    18    19    1
    34    19    20    1
    35    19    21    2
    36    20    37    1
    37    20    38    1
    38    20    39    1
    39    22    40    1
    40    23    26    1
    41    23    24    1
    42    24    25    1
    43    24    41    1
    44    24    42    1
    45    25    26    1
    46    25    43    1
    47    25    44    1
    48    26    45    1
    49    26    46    1
@<TRIPOS>SUBSTRUCTURE
     1 ZINC000516003207        1 TEMP              0 ****  ****    0 ROOT


##########                                Name:    ZINC000271662144
##########                DOCK_Rotatable_Bonds:                   8
##########                         Heavy_Atoms:                  26
##########                    Molecular_Weight:             390.402
##########                DOCK_Rotatable_Bonds:                   8
##########                       Formal_Charge:          0.00999944
##########                     HBond_Acceptors:                   9
##########                        HBond_Donors:                   3
##########                         Heavy_Atoms:                  26
##########                          Grid_Score:          -28.937683
##########                     Grid_vdw_energy:          -26.483156
##########                      Grid_es_energy:           -2.454527
##########           Internal_energy_repulsive:           10.523240

@<TRIPOS>MOLECULE
ZINC000271662144
 44 45 1 0 0
SMALL
USER_CHARGES


@<TRIPOS>ATOM
      1 C1         -2.5962    2.1824   47.9052 C.3     1  ZINC000271662144   -0.1400
      2 C2         -3.0456    2.9486   49.1509 C.3     1  ZINC000271662144    0.1200
      3 H3         -3.0048    4.0197   48.9530 H       1  ZINC000271662144    0.0600
      4 N4         -2.1553    2.6237   50.2733 N.3     1  ZINC000271662144   -0.6700
      5 C5         -0.9659    3.4859   50.2685 C.3     1  ZINC000271662144    0.1300
      6 H6         -1.1128    4.3035   49.5626 H       1  ZINC000271662144    0.1100
      7 C7         -0.7439    4.0564   51.6705 C.3     1  ZINC000271662144   -0.2000
      8 C8         -0.1586    5.4658   51.5609 C.3     1  ZINC000271662144    0.4600
      9 F9          1.0288    5.4214   50.8224 F       1  ZINC000271662144   -0.1800
     10 F10        -1.0765    6.3034   50.9182 F       1  ZINC000271662144   -0.1800
     11 F11         0.1073    5.9612   52.8420 F       1  ZINC000271662144   -0.1700
     12 C12         0.2383    2.6782   49.8583 C.ar    1  ZINC000271662144   -0.0900
     13 C13         0.5982    1.5577   50.5837 C.ar    1  ZINC000271662144   -0.0600
     14 C14         1.7024    0.8162   50.2085 C.ar    1  ZINC000271662144   -0.1600
     15 C15         2.4480    1.1957   49.1052 C.ar    1  ZINC000271662144    0.1000
     16 F16         3.5274    0.4713   48.7372 F       1  ZINC000271662144   -0.1400
     17 C17         2.0864    2.3178   48.3791 C.ar    1  ZINC000271662144   -0.1500
     18 C18         0.9790    3.0550   48.7535 C.ar    1  ZINC000271662144   -0.0700
     19 C19        -4.4580    2.5556   49.5000 C.ar    1  ZINC000271662144   -0.1100
     20 C20        -4.7646    1.2320   49.7528 C.ar    1  ZINC000271662144   -0.0400
     21 C21        -6.0603    0.8715   50.0731 C.ar    1  ZINC000271662144   -0.1400
     22 C22        -7.0490    1.8349   50.1409 C.ar    1  ZINC000271662144   -0.0200
     23 C23        -6.7422    3.1592   49.8889 C.ar    1  ZINC000271662144   -0.6800
     24 S24        -8.0026    4.3874   49.9748 S.o2    1  ZINC000271662144    2.7000
     25 N25        -8.5321    4.6553   48.4288 N.am    1  ZINC000271662144   -1.2500
     26 O26        -9.0899    3.7983   50.6749 O.2     1  ZINC000271662144   -0.9600
     27 O27        -7.3664    5.5866   50.3946 O.2     1  ZINC000271662144   -0.9600
     28 C28        -5.4459    3.5202   49.5730 C.ar    1  ZINC000271662144   -0.0100
     29 H29        -1.5746    2.4666   47.6527 H       1  ZINC000271662144    0.0600
     30 H30        -2.6370    1.1112   48.1030 H       1  ZINC000271662144    0.0700
     31 H31        -3.2568    2.4235   47.0723 H       1  ZINC000271662144    0.0600
     32 H32        -2.6448    2.6878   51.1533 H       1  ZINC000271662144    0.3500
     33 H33        -1.6954    4.0985   52.2007 H       1  ZINC000271662144    0.1100
     34 H34        -0.0512    3.4170   52.2176 H       1  ZINC000271662144    0.1200
     35 H35         0.0164    1.2619   51.4442 H       1  ZINC000271662144    0.1300
     36 H36         1.9838   -0.0586   50.7757 H       1  ZINC000271662144    0.1400
     37 H37         2.6675    2.6149   47.5187 H       1  ZINC000271662144    0.1400
     38 H38         0.6965    3.9301   48.1870 H       1  ZINC000271662144    0.1300
     39 H39        -3.9921    0.4791   49.6998 H       1  ZINC000271662144    0.1400
     40 H40        -6.3001   -0.1631   50.2700 H       1  ZINC000271662144    0.1400
     41 H41        -8.0613    1.5532   50.3904 H       1  ZINC000271662144    0.1400
     42 H42        -9.2331    5.3047   48.2619 H       1  ZINC000271662144    0.4200
     43 H43        -8.1412    4.1630   47.6901 H       1  ZINC000271662144    0.4200
     44 H44        -5.2061    4.5547   49.3761 H       1  ZINC000271662144    0.1400
@<TRIPOS>BOND
     1     1     2    1
     2     1    29    1
     3     1    30    1
     4     1    31    1
     5     2     3    1
     6     2     4    1
     7     2    19    1
     8     4     5    1
     9     4    32    1
    10     5     6    1
    11     5     7    1
    12     5    12    1
    13     7     8    1
    14     7    33    1
    15     7    34    1
    16     8     9    1
    17     8    10    1
    18     8    11    1
    19    12    18   ar
    20    12    13   ar
    21    13    14   ar
    22    13    35    1
    23    14    15   ar
    24    14    36    1
    25    15    16    1
    26    15    17   ar
    27    17    18   ar
    28    17    37    1
    29    18    38    1
    30    19    28   ar
    31    19    20   ar
    32    20    21   ar
    33    20    39    1
    34    21    22   ar
    35    21    40    1
    36    22    23   ar
    37    22    41    1
    38    23    24    1
    39    23    28   ar
    40    24    25   am
    41    24    26    2
    42    24    27    2
    43    25    42    1
    44    25    43    1
    45    28    44    1
@<TRIPOS>SUBSTRUCTURE
     1 ZINC000271662144        1 TEMP              0 ****  ****    0 ROOT


##########                                Name:    ZINC001513543414
##########                DOCK_Rotatable_Bonds:                   6
##########                         Heavy_Atoms:                  26
##########                    Molecular_Weight:             364.488
##########                DOCK_Rotatable_Bonds:                   6
##########                       Formal_Charge:         -0.00999974
##########                     HBond_Acceptors:                   7
##########                        HBond_Donors:                   0
##########                         Heavy_Atoms:                  26
##########                          Grid_Score:          -28.912394
##########                     Grid_vdw_energy:          -29.009308
##########                      Grid_es_energy:            0.096913
##########           Internal_energy_repulsive:           20.561455

@<TRIPOS>MOLECULE
ZINC001513543414
 58 61 1 0 0
SMALL
USER_CHARGES


@<TRIPOS>ATOM
      1 C1         -9.0363   -0.3931   53.5601 C.3     1  ZINC001513543414   -0.1500
      2 C2         -8.9604    0.6256   52.4212 C.3     1  ZINC001513543414   -0.1200
      3 C3         -7.4994    1.0069   52.1746 C.3     1  ZINC001513543414    0.1100
      4 C4         -6.9094    1.6430   53.4348 C.3     1  ZINC001513543414   -0.1500
      5 C5         -6.6879   -0.2489   51.7905 C.3     1  ZINC001513543414   -0.1500
      6 C6         -5.7394    0.2960   50.6880 C.3     1  ZINC001513543414   -0.1500
      7 C7         -6.6507    1.3502   50.0107 C.3     1  ZINC001513543414    0.0700
      8 H8         -7.3120    0.8709   49.2888 H       1  ZINC001513543414    0.0800
      9 C9         -5.8026    2.4219   49.3227 C.3     1  ZINC001513543414    0.1100
     10 N10        -5.8084    3.6432   50.1317 N.pl3   1  ZINC001513543414   -0.4600
     11 C11        -4.8090    4.0985   50.9464 C.2     1  ZINC001513543414    0.1900
     12 C12        -3.4784    3.4327   51.1853 C.3     1  ZINC001513543414    0.1800
     13 H13        -3.6032    2.3519   51.2509 H       1  ZINC001513543414    0.1000
     14 C14        -2.4861    3.7917   50.0507 C.3     1  ZINC001513543414   -0.1500
     15 C15        -1.1264    3.5953   50.7752 C.3     1  ZINC001513543414   -0.1500
     16 C16        -1.4562    4.0390   52.2167 C.3     1  ZINC001513543414    0.0500
     17 O17        -2.8763    3.9389   52.3872 O.3     1  ZINC001513543414   -0.3500
     18 N18        -5.2202    5.2151   51.4772 N.2     1  ZINC001513543414   -0.2600
     19 N19        -6.4022    5.4941   51.0566 N.2     1  ZINC001513543414   -0.3100
     20 C20        -6.8099    4.5654   50.2241 C.2     1  ZINC001513543414    0.3400
     21 N21        -8.0305    4.5244   49.5691 N.3     1  ZINC001513543414   -0.4500
     22 C22        -8.0581    5.4781   48.4398 C.3     1  ZINC001513543414    0.0500
     23 C23        -9.5239    5.9750   48.3773 C.3     1  ZINC001513543414   -0.1500
     24 C24        -9.8925    6.0535   49.8822 C.3     1  ZINC001513543414    0.0700
     25 H25        -9.5423    6.9899   50.3166 H       1  ZINC001513543414    0.0800
     26 O26       -11.3026    5.9099   50.0652 O.3     1  ZINC001513543414   -0.3800
     27 C27       -11.7207    5.9717   51.4302 C.3     1  ZINC001513543414    0.0300
     28 C28        -9.1349    4.8536   50.4887 C.3     1  ZINC001513543414    0.0600
     29 O29        -7.4155    1.9279   51.0806 O.3     1  ZINC001513543414   -0.3600
     30 H30       -10.0772   -0.6648   53.7357 H       1  ZINC001513543414    0.0500
     31 H31        -8.4692   -1.2837   53.2894 H       1  ZINC001513543414    0.0500
     32 H32        -8.6168    0.0432   54.4666 H       1  ZINC001513543414    0.0600
     33 H33        -9.3799    0.1893   51.5148 H       1  ZINC001513543414    0.0700
     34 H34        -9.5276    1.5162   52.6919 H       1  ZINC001513543414    0.0600
     35 H35        -6.9504    0.9276   54.2562 H       1  ZINC001513543414    0.0700
     36 H36        -5.8726    1.9237   53.2489 H       1  ZINC001513543414    0.0600
     37 H37        -7.4847    2.5308   53.6972 H       1  ZINC001513543414    0.0700
     38 H38        -6.1190   -0.6192   52.6433 H       1  ZINC001513543414    0.0900
     39 H39        -7.3406   -1.0254   51.3915 H       1  ZINC001513543414    0.0800
     40 H40        -4.8564    0.7625   51.1249 H       1  ZINC001513543414    0.0800
     41 H41        -5.4596   -0.4902   49.9867 H       1  ZINC001513543414    0.0900
     42 H42        -4.7794    2.0620   49.2154 H       1  ZINC001513543414    0.1000
     43 H43        -6.2174    2.6365   48.3378 H       1  ZINC001513543414    0.1100
     44 H44        -2.5859    3.1053   49.2098 H       1  ZINC001513543414    0.0900
     45 H45        -2.6142    4.8252   49.7292 H       1  ZINC001513543414    0.0900
     46 H46        -0.8218    2.5489   50.7515 H       1  ZINC001513543414    0.0800
     47 H47        -0.3585    4.2340   50.3388 H       1  ZINC001513543414    0.0900
     48 H48        -0.9527    3.3855   52.9290 H       1  ZINC001513543414    0.0700
     49 H49        -1.1362    5.0698   52.3685 H       1  ZINC001513543414    0.0700
     50 H50        -7.3825    6.3119   48.6307 H       1  ZINC001513543414    0.0600
     51 H51        -7.7881    4.9748   47.5114 H       1  ZINC001513543414    0.0900
     52 H52        -9.5835    6.9575   47.9090 H       1  ZINC001513543414    0.0800
     53 H53       -10.1578    5.2571   47.8570 H       1  ZINC001513543414    0.0900
     54 H54       -12.8031    5.8547   51.4843 H       1  ZINC001513543414    0.0900
     55 H55       -11.2402    5.1722   51.9940 H       1  ZINC001513543414    0.0400
     56 H56       -11.4379    6.9355   51.8536 H       1  ZINC001513543414    0.0400
     57 H57        -9.8064    4.0001   50.5825 H       1  ZINC001513543414    0.1000
     58 H58        -8.7355    5.1232   51.4665 H       1  ZINC001513543414    0.0900
@<TRIPOS>BOND
     1     1     2    1
     2     1    30    1
     3     1    31    1
     4     1    32    1
     5     2     3    1
     6     2    33    1
     7     2    34    1
     8     3    29    1
     9     3     4    1
    10     3     5    1
    11     4    35    1
    12     4    36    1
    13     4    37    1
    14     5     6    1
    15     5    38    1
    16     5    39    1
    17     6     7    1
    18     6    40    1
    19     6    41    1
    20     7     8    1
    21     7     9    1
    22     7    29    1
    23     9    10    1
    24     9    42    1
    25     9    43    1
    26    10    20    1
    27    10    11    1
    28    11    12    1
    29    11    18    2
    30    12    13    1
    31    12    17    1
    32    12    14    1
    33    14    15    1
    34    14    44    1
    35    14    45    1
    36    15    16    1
    37    15    46    1
    38    15    47    1
    39    16    17    1
    40    16    48    1
    41    16    49    1
    42    18    19    1
    43    19    20    2
    44    20    21    1
    45    21    28    1
    46    21    22    1
    47    22    23    1
    48    22    50    1
    49    22    51    1
    50    23    24    1
    51    23    52    1
    52    23    53    1
    53    24    25    1
    54    24    26    1
    55    24    28    1
    56    26    27    1
    57    27    54    1
    58    27    55    1
    59    27    56    1
    60    28    57    1
    61    28    58    1
@<TRIPOS>SUBSTRUCTURE
     1 ZINC001513543414        1 TEMP              0 ****  ****    0 ROOT


##########                                Name:    ZINC000347662449
##########                DOCK_Rotatable_Bonds:                   5
##########                         Heavy_Atoms:                  23
##########                    Molecular_Weight:              327.45
##########                DOCK_Rotatable_Bonds:                   5
##########                       Formal_Charge:                0.03
##########                     HBond_Acceptors:                   5
##########                        HBond_Donors:                   0
##########                         Heavy_Atoms:                  23
##########                          Grid_Score:          -28.870047
##########                     Grid_vdw_energy:          -28.522451
##########                      Grid_es_energy:           -0.347595
##########           Internal_energy_repulsive:            4.195526

@<TRIPOS>MOLECULE
ZINC000347662449
 44 46 1 0 0
SMALL
USER_CHARGES


@<TRIPOS>ATOM
      1 C1         -0.2271    2.4645   57.6587 C.2     1  ZINC000347662449   -0.1800
      2 C2         -0.8030    2.6023   56.4901 C.2     1  ZINC000347662449   -0.1700
      3 C3         -1.0576    3.9792   55.9333 C.3     1  ZINC000347662449    0.1600
      4 N4         -2.1995    3.9318   55.0167 N.am    1  ZINC000347662449   -0.6200
      5 C5         -3.6012    4.0589   55.4328 C.3     1  ZINC000347662449    0.1100
      6 C6         -4.3859    4.3865   54.1431 C.3     1  ZINC000347662449   -0.1100
      7 C7         -3.4726    3.7761   53.0548 C.3     1  ZINC000347662449   -0.1200
      8 H8         -3.7899    2.7610   52.8158 H       1  ZINC000347662449    0.1400
      9 S9         -3.4825    4.8079   51.5677 S.3     1  ZINC000347662449    0.0300
     10 C10        -3.2818    3.5670   50.3330 C.2     1  ZINC000347662449    0.1900
     11 N11        -2.2132    3.3859   49.5922 N.2     1  ZINC000347662449   -0.4500
     12 C12        -2.4172    2.3491   48.7621 C.2     1  ZINC000347662449   -0.0100
     13 C13        -3.6497    1.8623   48.9860 C.2     1  ZINC000347662449   -0.0400
     14 N14        -4.2079    2.6271   49.9880 N.pl3   1  ZINC000347662449   -0.4000
     15 C15        -5.4869    2.4732   50.5413 C.ar    1  ZINC000347662449    0.1100
     16 C16        -6.3952    3.5218   50.4953 C.ar    1  ZINC000347662449   -0.1100
     17 C17        -7.6547    3.3672   51.0414 C.ar    1  ZINC000347662449   -0.1000
     18 C18        -8.0108    2.1696   51.6332 C.ar    1  ZINC000347662449   -0.0800
     19 C19        -9.3858    2.0040   52.2275 C.3     1  ZINC000347662449   -0.1200
     20 C20        -7.1080    1.1230   51.6805 C.ar    1  ZINC000347662449   -0.0700
     21 C21        -7.5001   -0.1809   52.3264 C.3     1  ZINC000347662449   -0.1200
     22 C22        -5.8494    1.2696   51.1312 C.ar    1  ZINC000347662449   -0.1100
     23 C23        -2.0977    3.7720   53.6860 C.2     1  ZINC000347662449    0.5300
     24 O24        -1.0557    3.6369   53.0803 O.2     1  ZINC000347662449   -0.4900
     25 H25         0.0652    3.3378   58.2230 H       1  ZINC000347662449    0.1000
     26 H26        -0.0486    1.4778   58.0598 H       1  ZINC000347662449    0.1000
     27 H27        -1.0952    1.7290   55.9259 H       1  ZINC000347662449    0.1100
     28 H28        -1.2759    4.6669   56.7503 H       1  ZINC000347662449    0.0900
     29 H29        -0.1740    4.3228   55.3955 H       1  ZINC000347662449    0.0900
     30 H30        -3.9541    3.1207   55.8610 H       1  ZINC000347662449    0.0800
     31 H31        -3.7083    4.8680   56.1553 H       1  ZINC000347662449    0.0900
     32 H32        -5.3632    3.9037   54.1478 H       1  ZINC000347662449    0.1100
     33 H33        -4.4852    5.4637   54.0098 H       1  ZINC000347662449    0.0900
     34 H34        -1.7106    1.9711   48.0380 H       1  ZINC000347662449    0.1800
     35 H35        -4.1133    1.0286   48.4797 H       1  ZINC000347662449    0.1800
     36 H36        -6.1175    4.4577   50.0334 H       1  ZINC000347662449    0.1300
     37 H37        -8.3617    4.1829   51.0062 H       1  ZINC000347662449    0.1300
     38 H38       -10.0666    1.6214   51.4671 H       1  ZINC000347662449    0.0800
     39 H39        -9.3396    1.3021   53.0601 H       1  ZINC000347662449    0.0700
     40 H40        -9.7456    2.9687   52.5851 H       1  ZINC000347662449    0.0700
     41 H41        -7.9444   -0.8377   51.5787 H       1  ZINC000347662449    0.0800
     42 H42        -6.6156   -0.6574   52.7492 H       1  ZINC000347662449    0.0700
     43 H43        -8.2239    0.0095   53.1189 H       1  ZINC000347662449    0.0800
     44 H44        -5.1448    0.4520   51.1682 H       1  ZINC000347662449    0.1300
@<TRIPOS>BOND
     1     1     2    2
     2     1    25    1
     3     1    26    1
     4     2     3    1
     5     2    27    1
     6     3     4    1
     7     3    28    1
     8     3    29    1
     9     4    23   am
    10     4     5    1
    11     5     6    1
    12     5    30    1
    13     5    31    1
    14     6     7    1
    15     6    32    1
    16     6    33    1
    17     7     8    1
    18     7     9    1
    19     7    23    1
    20     9    10    1
    21    10    14    1
    22    10    11    2
    23    11    12    1
    24    12    13    2
    25    12    34    1
    26    13    14    1
    27    13    35    1
    28    14    15    1
    29    15    22   ar
    30    15    16   ar
    31    16    17   ar
    32    16    36    1
    33    17    18   ar
    34    17    37    1
    35    18    19    1
    36    18    20   ar
    37    19    38    1
    38    19    39    1
    39    19    40    1
    40    20    21    1
    41    20    22   ar
    42    21    41    1
    43    21    42    1
    44    21    43    1
    45    22    44    1
    46    23    24    2
@<TRIPOS>SUBSTRUCTURE
     1 ZINC000347662449        1 TEMP              0 ****  ****    0 ROOT


##########                                Name:    ZINC000458730620
##########                DOCK_Rotatable_Bonds:                   9
##########                         Heavy_Atoms:                  25
##########                    Molecular_Weight:              375.44
##########                DOCK_Rotatable_Bonds:                   9
##########                       Formal_Charge:        -1.86265e-07
##########                     HBond_Acceptors:                   9
##########                        HBond_Donors:                   3
##########                         Heavy_Atoms:                  25
##########                          Grid_Score:          -28.862717
##########                     Grid_vdw_energy:          -28.865616
##########                      Grid_es_energy:            0.002899
##########           Internal_energy_repulsive:           50.708366

@<TRIPOS>MOLECULE
ZINC000458730620
 48 49 1 0 0
SMALL
USER_CHARGES


@<TRIPOS>ATOM
      1 C1        -10.9052    1.9954   54.3830 C.3     1  ZINC000458730620   -0.1600
      2 C2        -11.2247    0.6393   53.7506 C.3     1  ZINC000458730620    0.2000
      3 C3        -12.6358    0.6718   53.1602 C.3     1  ZINC000458730620   -0.1600
      4 N4        -10.2570    0.3560   52.6877 N.am    1  ZINC000458730620   -0.7400
      5 C5         -8.9460    0.2485   52.9811 C.2     1  ZINC000458730620    0.7100
      6 O6         -8.5661    0.3882   54.1277 O.2     1  ZINC000458730620   -0.5800
      7 N7         -8.0560   -0.0137   52.0035 N.am    1  ZINC000458730620   -0.7500
      8 C8         -6.6312   -0.1322   52.3227 C.3     1  ZINC000458730620    0.1300
      9 C9         -5.8075    0.5915   51.2556 C.3     1  ZINC000458730620    0.1000
     10 N10        -6.1149    2.0235   51.2895 N.am    1  ZINC000458730620   -1.1100
     11 S11        -5.7151    2.9868   50.0031 S.o2    1  ZINC000458730620    2.7000
     12 O12        -6.2874    2.3786   48.8534 O.2     1  ZINC000458730620   -0.9400
     13 O13        -5.9984    4.3220   50.3983 O.2     1  ZINC000458730620   -0.9400
     14 C14        -3.9676    2.8879   49.8006 C.ar    1  ZINC000458730620   -0.7300
     15 C15        -3.4352    2.4105   48.6181 C.ar    1  ZINC000458730620    0.0400
     16 C16        -2.0645    2.3329   48.4578 C.ar    1  ZINC000458730620   -0.1800
     17 C17        -1.2233    2.7334   49.4819 C.ar    1  ZINC000458730620    0.1900
     18 F18         0.1164    2.6578   49.3246 F       1  ZINC000458730620   -0.1200
     19 C19        -1.7555    3.2119   50.6670 C.ar    1  ZINC000458730620   -0.2100
     20 C20        -3.1281    3.2941   50.8245 C.ar    1  ZINC000458730620    0.2200
     21 F21        -3.6488    3.7608   51.9804 F       1  ZINC000458730620   -0.1100
     22 C22       -11.1436   -0.4532   54.8186 C.3     1  ZINC000458730620   -0.1100
     23 C23       -10.4923    0.0150   56.1306 C.3     1  ZINC000458730620   -0.1400
     24 C24       -11.5609   -0.8122   56.8645 C.3     1  ZINC000458730620   -0.1400
     25 C25       -12.4445   -0.6299   55.6193 C.3     1  ZINC000458730620   -0.1400
     26 H26       -11.6608    2.2344   55.1313 H       1  ZINC000458730620    0.0600
     27 H27        -9.9247    1.9531   54.8574 H       1  ZINC000458730620    0.0500
     28 H28       -10.9023    2.7647   53.6109 H       1  ZINC000458730620    0.0800
     29 H29       -12.6936    1.4501   52.3994 H       1  ZINC000458730620    0.0800
     30 H30       -12.8635   -0.2943   52.7097 H       1  ZINC000458730620    0.0500
     31 H31       -13.3558    0.8826   53.9511 H       1  ZINC000458730620    0.0600
     32 H32       -10.5600    0.2458   51.7729 H       1  ZINC000458730620    0.3900
     33 H33        -8.3589   -0.1238   51.0887 H       1  ZINC000458730620    0.4000
     34 H34        -6.4384    0.3169   53.2970 H       1  ZINC000458730620    0.0800
     35 H35        -6.3504   -1.1852   52.3461 H       1  ZINC000458730620    0.0800
     36 H36        -4.7459    0.4431   51.4534 H       1  ZINC000458730620    0.0900
     37 H37        -6.0535    0.1902   50.2726 H       1  ZINC000458730620    0.0700
     38 H38        -6.5526    2.4074   52.0652 H       1  ZINC000458730620    0.4300
     39 H39        -4.0906    2.0975   47.8189 H       1  ZINC000458730620    0.1700
     40 H40        -1.6495    1.9593   47.5333 H       1  ZINC000458730620    0.1600
     41 H41        -1.1001    3.5245   51.4664 H       1  ZINC000458730620    0.1600
     42 H42       -10.7354   -1.3889   54.4367 H       1  ZINC000458730620    0.1100
     43 H43        -9.4780   -0.3581   56.2721 H       1  ZINC000458730620    0.0700
     44 H44       -10.5773    1.0882   56.3015 H       1  ZINC000458730620    0.0800
     45 H45       -11.2661   -1.8462   57.0432 H       1  ZINC000458730620    0.0800
     46 H46       -11.9556   -0.3236   57.7554 H       1  ZINC000458730620    0.0700
     47 H47       -13.0633    0.2670   55.6504 H       1  ZINC000458730620    0.0800
     48 H48       -13.0063   -1.5236   55.3479 H       1  ZINC000458730620    0.0700
@<TRIPOS>BOND
     1     1     2    1
     2     1    26    1
     3     1    27    1
     4     1    28    1
     5     2     3    1
     6     2     4    1
     7     2    22    1
     8     3    29    1
     9     3    30    1
    10     3    31    1
    11     4     5   am
    12     4    32    1
    13     5     6    2
    14     5     7   am
    15     7     8    1
    16     7    33    1
    17     8     9    1
    18     8    34    1
    19     8    35    1
    20     9    10    1
    21     9    36    1
    22     9    37    1
    23    10    11   am
    24    10    38    1
    25    11    12    2
    26    11    13    2
    27    11    14    1
    28    14    20   ar
    29    14    15   ar
    30    15    16   ar
    31    15    39    1
    32    16    17   ar
    33    16    40    1
    34    17    18    1
    35    17    19   ar
    36    19    20   ar
    37    19    41    1
    38    20    21    1
    39    22    25    1
    40    22    23    1
    41    22    42    1
    42    23    24    1
    43    23    43    1
    44    23    44    1
    45    24    25    1
    46    24    45    1
    47    24    46    1
    48    25    47    1
    49    25    48    1
@<TRIPOS>SUBSTRUCTURE
     1 ZINC000458730620        1 TEMP              0 ****  ****    0 ROOT


##########                                Name:    ZINC001162683355
##########                DOCK_Rotatable_Bonds:                   5
##########                         Heavy_Atoms:                  25
##########                    Molecular_Weight:             336.437
##########                DOCK_Rotatable_Bonds:                   5
##########                       Formal_Charge:          -0.0100002
##########                     HBond_Acceptors:                   5
##########                        HBond_Donors:                   1
##########                         Heavy_Atoms:                  25
##########                          Grid_Score:          -28.844362
##########                     Grid_vdw_energy:          -27.715303
##########                      Grid_es_energy:           -1.129058
##########           Internal_energy_repulsive:            7.030955

@<TRIPOS>MOLECULE
ZINC001162683355
 49 52 1 0 0
SMALL
USER_CHARGES


@<TRIPOS>ATOM
      1 C1         -7.9034    3.1763   53.8154 C.3     1  ZINC001162683355    0.0200
      2 N2         -7.7332    2.1220   52.8068 N.3     1  ZINC001162683355   -0.5400
      3 C3         -8.1364    0.8127   53.3401 C.3     1  ZINC001162683355    0.0100
      4 C4         -8.0000   -0.2441   52.2408 C.3     1  ZINC001162683355    0.0600
      5 O5         -6.6550   -0.2483   51.7547 O.3     1  ZINC001162683355   -0.3800
      6 C6         -6.2295    1.0111   51.2274 C.3     1  ZINC001162683355    0.0800
      7 H7         -6.8593    1.2823   50.3800 H       1  ZINC001162683355    0.0700
      8 C8         -4.7734    0.9075   50.7692 C.3     1  ZINC001162683355    0.1500
      9 N9         -4.3028    2.2253   50.3357 N.pl3   1  ZINC001162683355   -0.7300
     10 C10        -3.1538    2.3327   49.5599 C.ar    1  ZINC001162683355    0.4300
     11 C11        -1.9987    2.9027   50.1002 C.ar    1  ZINC001162683355   -0.0100
     12 C12        -0.8538    2.9955   49.2878 C.ar    1  ZINC001162683355   -0.0400
     13 C13        -0.9201    2.5132   47.9737 C.ar    1  ZINC001162683355   -0.1800
     14 C14        -2.0910    1.9716   47.5293 C.ar    1  ZINC001162683355    0.1000
     15 N15        -3.1566    1.8945   48.3118 N.ar    1  ZINC001162683355   -0.5400
     16 C16         0.1771    3.6226   50.1094 C.2     1  ZINC001162683355   -0.2200
     17 C17        -0.3743    3.8679   51.3114 C.2     1  ZINC001162683355    0.0800
     18 N18        -1.6710    3.4392   51.3245 N.pl3   1  ZINC001162683355   -0.4600
     19 C19        -2.5797    3.5411   52.4691 C.3     1  ZINC001162683355    0.1500
     20 C20        -1.9721    4.4410   53.5143 C.ar    1  ZINC001162683355   -0.1100
     21 C21        -2.0026    5.8128   53.3473 C.ar    1  ZINC001162683355   -0.1000
     22 C22        -1.4492    6.6384   54.3081 C.ar    1  ZINC001162683355   -0.1200
     23 C23        -0.8571    6.0918   55.4312 C.ar    1  ZINC001162683355   -0.1100
     24 C24        -0.8219    4.7196   55.5956 C.ar    1  ZINC001162683355   -0.1200
     25 C25        -1.3793    3.8943   54.6369 C.ar    1  ZINC001162683355   -0.1000
     26 C26        -6.3480    2.0806   52.3164 C.3     1  ZINC001162683355    0.0300
     27 H27        -7.2358    2.9863   54.6558 H       1  ZINC001162683355    0.0300
     28 H28        -7.6650    4.1438   53.3736 H       1  ZINC001162683355    0.0700
     29 H29        -8.9358    3.1813   54.1654 H       1  ZINC001162683355    0.0700
     30 H30        -9.1730    0.8591   53.6738 H       1  ZINC001162683355    0.0900
     31 H31        -7.4943    0.5486   54.1805 H       1  ZINC001162683355    0.0500
     32 H32        -8.6818   -0.0090   51.4234 H       1  ZINC001162683355    0.0600
     33 H33        -8.2434   -1.2260   52.6468 H       1  ZINC001162683355    0.1000
     34 H34        -4.7031    0.2052   49.9385 H       1  ZINC001162683355    0.0700
     35 H35        -4.1566    0.5552   51.5960 H       1  ZINC001162683355    0.0800
     36 H36        -4.7927    3.0230   50.5899 H       1  ZINC001162683355    0.4000
     37 H37        -0.0592    2.5689   47.3240 H       1  ZINC001162683355    0.1300
     38 H38        -2.1499    1.5974   46.5179 H       1  ZINC001162683355    0.1500
     39 H39         1.1888    3.8507   49.8078 H       1  ZINC001162683355    0.1500
     40 H40         0.1337    4.3325   52.1436 H       1  ZINC001162683355    0.1700
     41 H41        -2.7425    2.5502   52.8931 H       1  ZINC001162683355    0.0900
     42 H42        -3.5322    3.9569   52.1409 H       1  ZINC001162683355    0.0900
     43 H43        -2.4619    6.2398   52.4680 H       1  ZINC001162683355    0.1200
     44 H44        -1.4770    7.7104   54.1799 H       1  ZINC001162683355    0.1300
     45 H45        -0.4224    6.7367   56.1806 H       1  ZINC001162683355    0.1300
     46 H46        -0.3594    4.2926   56.4731 H       1  ZINC001162683355    0.1300
     47 H47        -1.3517    2.8222   54.7653 H       1  ZINC001162683355    0.1200
     48 H48        -5.6773    1.8368   53.1404 H       1  ZINC001162683355    0.0500
     49 H49        -6.0791    3.0526   51.9028 H       1  ZINC001162683355    0.0900
@<TRIPOS>BOND
     1     1     2    1
     2     1    27    1
     3     1    28    1
     4     1    29    1
     5     2    26    1
     6     2     3    1
     7     3     4    1
     8     3    30    1
     9     3    31    1
    10     4     5    1
    11     4    32    1
    12     4    33    1
    13     5     6    1
    14     6     7    1
    15     6     8    1
    16     6    26    1
    17     8     9    1
    18     8    34    1
    19     8    35    1
    20     9    10    1
    21     9    36    1
    22    10    15   ar
    23    10    11   ar
    24    11    18    1
    25    11    12   ar
    26    12    13   ar
    27    12    16    1
    28    13    14   ar
    29    13    37    1
    30    14    15   ar
    31    14    38    1
    32    16    17    2
    33    16    39    1
    34    17    18    1
    35    17    40    1
    36    18    19    1
    37    19    20    1
    38    19    41    1
    39    19    42    1
    40    20    25   ar
    41    20    21   ar
    42    21    22   ar
    43    21    43    1
    44    22    23   ar
    45    22    44    1
    46    23    24   ar
    47    23    45    1
    48    24    25   ar
    49    24    46    1
    50    25    47    1
    51    26    48    1
    52    26    49    1
@<TRIPOS>SUBSTRUCTURE
     1 ZINC001162683355        1 TEMP              0 ****  ****    0 ROOT


##########                                Name:    ZINC001271977984
##########                DOCK_Rotatable_Bonds:                   7
##########                         Heavy_Atoms:                  24
##########                    Molecular_Weight:             328.371
##########                DOCK_Rotatable_Bonds:                   7
##########                       Formal_Charge:           0.0200001
##########                     HBond_Acceptors:                   7
##########                        HBond_Donors:                   0
##########                         Heavy_Atoms:                  24
##########                          Grid_Score:          -28.841095
##########                     Grid_vdw_energy:          -27.967791
##########                      Grid_es_energy:           -0.873304
##########           Internal_energy_repulsive:           21.783081

@<TRIPOS>MOLECULE
ZINC001271977984
 44 46 1 0 0
SMALL
USER_CHARGES


@<TRIPOS>ATOM
      1 C1         -6.3306    1.3149   49.6988 C.3     1  ZINC001271977984   -0.1800
      2 C2         -5.2946    1.8234   50.7034 C.3     1  ZINC001271977984    0.1700
      3 H3         -5.1751    1.0926   51.5032 H       1  ZINC001271977984    0.1100
      4 C4         -3.9745    2.0246   50.0052 C.2     1  ZINC001271977984    0.2700
      5 N5         -2.9300    2.5832   50.5388 N.2     1  ZINC001271977984   -0.4700
      6 C6         -1.9234    2.5952   49.6234 C.ar    1  ZINC001271977984    0.0200
      7 C7         -0.6072    3.0585   49.6410 C.ar    1  ZINC001271977984   -0.0600
      8 C8          0.1809    2.9194   48.5201 C.ar    1  ZINC001271977984   -0.1200
      9 C9         -0.3255    2.3223   47.3755 C.ar    1  ZINC001271977984   -0.0900
     10 C10        -1.6249    1.8601   47.3437 C.ar    1  ZINC001271977984   -0.0900
     11 C11        -2.4321    1.9914   48.4630 C.ar    1  ZINC001271977984    0.0100
     12 O12        -3.7078    1.6470   48.7450 O.3     1  ZINC001271977984   -0.2100
     13 N13        -5.7483    3.1004   51.2706 N.3     1  ZINC001271977984   -0.5300
     14 C14        -5.2015    3.3012   52.6192 C.3     1  ZINC001271977984    0.0000
     15 C15        -5.3991    4.2219   50.3886 C.3     1  ZINC001271977984    0.0400
     16 C16        -6.2502    5.4403   50.7515 C.3     1  ZINC001271977984    0.1200
     17 N17        -7.6584    5.1553   50.4646 N.am    1  ZINC001271977984   -0.6000
     18 C18        -8.4873    4.4787   51.4653 C.3     1  ZINC001271977984    0.0800
     19 C19        -8.1911    5.5156   49.2802 C.2     1  ZINC001271977984    0.6000
     20 O20        -7.5030    6.0772   48.4497 O.2     1  ZINC001271977984   -0.5300
     21 C21        -9.6080    5.2288   48.9916 C.2     1  ZINC001271977984   -0.0800
     22 C22       -10.6859    5.7366   49.6491 C.2     1  ZINC001271977984    0.0200
     23 O23       -11.7793    5.2187   49.0669 O.3     1  ZINC001271977984   -0.2000
     24 C24       -11.3824    4.4106   48.0737 C.2     1  ZINC001271977984    0.1800
     25 N25       -10.0844    4.4111   48.0139 N.2     1  ZINC001271977984   -0.4600
     26 H26        -7.2855    1.1694   50.2038 H       1  ZINC001271977984    0.0800
     27 H27        -6.4502    2.0457   48.8990 H       1  ZINC001271977984    0.0800
     28 H28        -5.9941    0.3674   49.2780 H       1  ZINC001271977984    0.0700
     29 H29        -0.2082    3.5245   50.5299 H       1  ZINC001271977984    0.1400
     30 H30         1.1996    3.2779   48.5326 H       1  ZINC001271977984    0.1400
     31 H31         0.3019    2.2187   46.5025 H       1  ZINC001271977984    0.1400
     32 H32        -2.0124    1.3962   46.4487 H       1  ZINC001271977984    0.1400
     33 H33        -4.1124    3.3067   52.5726 H       1  ZINC001271977984    0.0300
     34 H34        -5.5530    4.2537   53.0156 H       1  ZINC001271977984    0.0700
     35 H35        -5.5332    2.4921   53.2700 H       1  ZINC001271977984    0.1100
     36 H36        -4.3439    4.4661   50.5117 H       1  ZINC001271977984    0.0500
     37 H37        -5.5886    3.9419   49.3523 H       1  ZINC001271977984    0.0800
     38 H38        -6.1332    5.6623   51.8122 H       1  ZINC001271977984    0.0900
     39 H39        -5.9260    6.2985   50.1628 H       1  ZINC001271977984    0.0900
     40 H40        -9.0303    5.2215   52.0497 H       1  ZINC001271977984    0.0600
     41 H41        -9.1974    3.8209   50.9641 H       1  ZINC001271977984    0.0900
     42 H42        -7.8511    3.8902   52.1264 H       1  ZINC001271977984    0.0700
     43 H43       -10.6658    6.4249   50.4811 H       1  ZINC001271977984    0.2300
     44 H44       -12.0380    3.8504   47.4236 H       1  ZINC001271977984    0.2600
@<TRIPOS>BOND
     1     1     2    1
     2     1    26    1
     3     1    27    1
     4     1    28    1
     5     2     3    1
     6     2     4    1
     7     2    13    1
     8     4    12    1
     9     4     5    2
    10     5     6    1
    11     6    11   ar
    12     6     7   ar
    13     7     8   ar
    14     7    29    1
    15     8     9   ar
    16     8    30    1
    17     9    10   ar
    18     9    31    1
    19    10    11   ar
    20    10    32    1
    21    11    12    1
    22    13    14    1
    23    13    15    1
    24    14    33    1
    25    14    34    1
    26    14    35    1
    27    15    16    1
    28    15    36    1
    29    15    37    1
    30    16    17    1
    31    16    38    1
    32    16    39    1
    33    17    18    1
    34    17    19   am
    35    18    40    1
    36    18    41    1
    37    18    42    1
    38    19    20    2
    39    19    21    1
    40    21    25    1
    41    21    22    2
    42    22    23    1
    43    22    43    1
    44    23    24    1
    45    24    25    2
    46    24    44    1
@<TRIPOS>SUBSTRUCTURE
     1 ZINC001271977984        1 TEMP              0 ****  ****    0 ROOT


##########                                Name:    ZINC000956479608
##########                DOCK_Rotatable_Bonds:                   5
##########                         Heavy_Atoms:                  25
##########                    Molecular_Weight:             345.442
##########                DOCK_Rotatable_Bonds:                   5
##########                       Formal_Charge:          -0.0100001
##########                     HBond_Acceptors:                   6
##########                        HBond_Donors:                   1
##########                         Heavy_Atoms:                  25
##########                          Grid_Score:          -28.834175
##########                     Grid_vdw_energy:          -28.007303
##########                      Grid_es_energy:           -0.826871
##########           Internal_energy_repulsive:           32.291126

@<TRIPOS>MOLECULE
ZINC000956479608
 52 55 1 0 0
SMALL
USER_CHARGES


@<TRIPOS>ATOM
      1 C1         -9.5740    4.8283   48.3953 C.3     1  ZINC000956479608   -0.0900
      2 C2         -8.5326    5.7215   49.0190 C.2     1  ZINC000956479608   -0.1100
      3 C3         -7.3906    5.3543   49.6770 C.2     1  ZINC000956479608   -0.1000
      4 C4         -6.9143    3.9809   49.9274 C.2     1  ZINC000956479608    0.6100
      5 O5         -7.5616    3.0311   49.5308 O.2     1  ZINC000956479608   -0.5000
      6 N6         -5.7614    3.7788   50.5957 N.am    1  ZINC000956479608   -0.7100
      7 C7         -5.2892    2.4147   50.8458 C.3     1  ZINC000956479608    0.1800
      8 C8         -6.3268    1.6611   51.6803 C.3     1  ZINC000956479608   -0.1700
      9 C9         -5.0863    1.6927   49.5118 C.3     1  ZINC000956479608   -0.1500
     10 C10        -4.0727    2.4685   48.6649 C.3     1  ZINC000956479608    0.1100
     11 N11        -2.8420    2.6482   49.4470 N.am    1  ZINC000956479608   -0.6100
     12 C12        -1.6493    2.2680   48.9476 C.2     1  ZINC000956479608    0.5500
     13 O13        -1.5846    1.7736   47.8420 O.2     1  ZINC000956479608   -0.5400
     14 C14        -0.3961    2.4573   49.7629 C.3     1  ZINC000956479608   -0.1900
     15 H15        -0.4136    2.0198   50.7611 H       1  ZINC000956479608    0.1200
     16 C16         0.9333    2.4626   49.0197 C.3     1  ZINC000956479608   -0.1100
     17 H17         0.8748    2.3416   47.9380 H       1  ZINC000956479608    0.1000
     18 C18         2.1618    1.8373   49.6620 C.3     1  ZINC000956479608   -0.0900
     19 C19         2.3404    2.3525   51.0902 C.3     1  ZINC000956479608   -0.1200
     20 C20         2.3813    3.8846   51.0555 C.3     1  ZINC000956479608   -0.1200
     21 C21         0.9636    4.4045   50.8172 C.3     1  ZINC000956479608   -0.0900
     22 C22         0.3820    3.7689   49.5756 C.3     1  ZINC000956479608   -0.1100
     23 H23        -0.0137    4.4648   48.8359 H       1  ZINC000956479608    0.1100
     24 C24        -2.9362    3.2506   50.7838 C.3     1  ZINC000956479608    0.1000
     25 C25        -3.9625    2.4660   51.6070 C.3     1  ZINC000956479608   -0.1400
     26 O26        -6.7893    6.5000   50.0495 O.3     1  ZINC000956479608    0.1200
     27 N27        -7.4239    7.4671   49.6986 N.2     1  ZINC000956479608   -0.3400
     28 C28        -8.5048    7.1334   49.0554 C.2     1  ZINC000956479608   -0.0100
     29 H29        -9.3052    4.6259   47.3585 H       1  ZINC000956479608    0.0800
     30 H30        -9.6253    3.8897   48.9472 H       1  ZINC000956479608    0.0900
     31 H31       -10.5445    5.3232   48.4290 H       1  ZINC000956479608    0.0800
     32 H32        -5.2444    4.5365   50.9110 H       1  ZINC000956479608    0.4100
     33 H33        -7.2720    1.6249   51.1386 H       1  ZINC000956479608    0.0800
     34 H34        -5.9757    0.6462   51.8666 H       1  ZINC000956479608    0.0700
     35 H35        -6.4721    2.1754   52.6304 H       1  ZINC000956479608    0.0600
     36 H36        -4.7114    0.6859   49.6964 H       1  ZINC000956479608    0.0800
     37 H37        -6.0365    1.6359   48.9807 H       1  ZINC000956479608    0.1000
     38 H38        -3.8501    1.9080   47.7569 H       1  ZINC000956479608    0.0900
     39 H39        -4.4849    3.4430   48.4032 H       1  ZINC000956479608    0.0600
     40 H40         2.0449    0.7539   49.6826 H       1  ZINC000956479608    0.0700
     41 H41         3.0439    2.0923   49.0747 H       1  ZINC000956479608    0.0700
     42 H42         1.5035    2.0227   51.7056 H       1  ZINC000956479608    0.0600
     43 H43         3.2742    1.9707   51.5028 H       1  ZINC000956479608    0.0700
     44 H44         2.7546    4.2623   52.0075 H       1  ZINC000956479608    0.0700
     45 H45         3.0332    4.2151   50.2468 H       1  ZINC000956479608    0.0700
     46 H46         0.3382    4.1543   51.6742 H       1  ZINC000956479608    0.0700
     47 H47         0.9915    5.4875   50.6970 H       1  ZINC000956479608    0.0700
     48 H48        -1.9636    3.2061   51.2739 H       1  ZINC000956479608    0.0900
     49 H49        -3.2557    4.2889   50.6950 H       1  ZINC000956479608    0.0700
     50 H50        -4.1128    2.9596   52.5671 H       1  ZINC000956479608    0.0900
     51 H51        -3.5982    1.4520   51.7718 H       1  ZINC000956479608    0.0900
     52 H52        -9.2408    7.8045   48.6381 H       1  ZINC000956479608    0.2000
@<TRIPOS>BOND
     1     1     2    1
     2     1    29    1
     3     1    30    1
     4     1    31    1
     5     2    28    1
     6     2     3    2
     7     3     4    1
     8     3    26    1
     9     4     5    2
    10     4     6   am
    11     6     7    1
    12     6    32    1
    13     7    25    1
    14     7     8    1
    15     7     9    1
    16     8    33    1
    17     8    34    1
    18     8    35    1
    19     9    10    1
    20     9    36    1
    21     9    37    1
    22    10    11    1
    23    10    38    1
    24    10    39    1
    25    11    12   am
    26    11    24    1
    27    12    13    2
    28    12    14    1
    29    14    15    1
    30    14    22    1
    31    14    16    1
    32    16    17    1
    33    16    22    1
    34    16    18    1
    35    18    19    1
    36    18    40    1
    37    18    41    1
    38    19    20    1
    39    19    42    1
    40    19    43    1
    41    20    21    1
    42    20    44    1
    43    20    45    1
    44    21    22    1
    45    21    46    1
    46    21    47    1
    47    22    23    1
    48    24    25    1
    49    24    48    1
    50    24    49    1
    51    25    50    1
    52    25    51    1
    53    26    27    1
    54    27    28    2
    55    28    52    1
@<TRIPOS>SUBSTRUCTURE
     1 ZINC000956479608        1 TEMP              0 ****  ****    0 ROOT


##########                                Name:    ZINC000443933644
##########                DOCK_Rotatable_Bonds:                   8
##########                         Heavy_Atoms:                  27
##########                    Molecular_Weight:             402.438
##########                DOCK_Rotatable_Bonds:                   8
##########                       Formal_Charge:          0.00999922
##########                     HBond_Acceptors:                   9
##########                        HBond_Donors:                   2
##########                         Heavy_Atoms:                  27
##########                          Grid_Score:          -28.824617
##########                     Grid_vdw_energy:          -26.454634
##########                      Grid_es_energy:           -2.369983
##########           Internal_energy_repulsive:           39.298790

@<TRIPOS>MOLECULE
ZINC000443933644
 48 49 1 0 0
SMALL
USER_CHARGES


@<TRIPOS>ATOM
      1 C1         -9.0298    2.9730   55.3319 C.3     1  ZINC000443933644   -0.1500
      2 C2         -8.4615    2.6834   53.9412 C.3     1  ZINC000443933644   -0.1400
      3 C3         -7.0130    2.2084   54.0711 C.3     1  ZINC000443933644   -0.1000
      4 H4         -6.9782    1.3142   54.6934 H       1  ZINC000443933644    0.1000
      5 C5         -6.1704    3.3111   54.7152 C.3     1  ZINC000443933644   -0.1700
      6 C6         -6.4557    1.8857   52.6832 C.3     1  ZINC000443933644    0.1200
      7 H7         -5.3901    1.6697   52.7606 H       1  ZINC000443933644    0.1300
      8 N8         -6.6580    3.0344   51.7966 N.am    1  ZINC000443933644   -1.1100
      9 S9         -5.7902    3.1590   50.3917 S.o2    1  ZINC000443933644    2.6900
     10 O10        -5.9902    1.9410   49.6873 O.2     1  ZINC000443933644   -0.9400
     11 O11        -6.0960    4.4335   49.8428 O.2     1  ZINC000443933644   -0.9400
     12 C12        -4.0852    3.2037   50.8340 C.ar    1  ZINC000443933644   -0.7000
     13 C13        -3.1025    2.8992   49.8770 C.ar    1  ZINC000443933644    0.0500
     14 C14        -3.4510    2.5560   48.5590 C.ar    1  ZINC000443933644   -0.1400
     15 C15        -2.4735    2.2671   47.6572 C.ar    1  ZINC000443933644   -0.0800
     16 C16        -1.1286    2.3061   48.0202 C.ar    1  ZINC000443933644   -0.1200
     17 C17        -0.7544    2.6340   49.2876 C.ar    1  ZINC000443933644   -0.0900
     18 C18        -1.7349    2.9386   50.2449 C.ar    1  ZINC000443933644   -0.0900
     19 C19        -1.3849    3.2827   51.5678 C.ar    1  ZINC000443933644    0.2300
     20 N20        -0.0435    3.3273   51.9525 N.am    1  ZINC000443933644   -0.6700
     21 C21         0.7350    4.3568   51.5645 C.2     1  ZINC000443933644    0.5100
     22 C22         2.1828    4.4049   51.9798 C.3     1  ZINC000443933644   -0.1700
     23 O23         0.2702    5.2445   50.8811 O.2     1  ZINC000443933644   -0.5100
     24 C24        -2.3790    3.5746   52.4766 C.ar    1  ZINC000443933644   -0.1600
     25 C25        -3.7187    3.5388   52.1018 C.ar    1  ZINC000443933644    0.0400
     26 C26        -7.1830    0.6667   52.1123 C.3     1  ZINC000443933644    0.4300
     27 F27        -6.2929   -0.0886   51.3412 F       1  ZINC000443933644   -0.1700
     28 F28        -7.6726   -0.1181   53.1619 F       1  ZINC000443933644   -0.1600
     29 F29        -8.2485    1.0921   51.3117 F       1  ZINC000443933644   -0.1700
     30 H30        -8.9978    2.0650   55.9339 H       1  ZINC000443933644    0.0500
     31 H31        -8.4347    3.7492   55.8132 H       1  ZINC000443933644    0.0600
     32 H32       -10.0618    3.3116   55.2394 H       1  ZINC000443933644    0.0600
     33 H33        -9.0566    1.9073   53.4600 H       1  ZINC000443933644    0.0700
     34 H34        -8.4935    3.5915   53.3393 H       1  ZINC000443933644    0.0900
     35 H35        -6.4928    3.4596   55.7458 H       1  ZINC000443933644    0.0700
     36 H36        -5.1199    3.0207   54.7014 H       1  ZINC000443933644    0.0600
     37 H37        -6.2983    4.2387   54.1574 H       1  ZINC000443933644    0.0700
     38 H38        -7.3002    3.7220   52.0325 H       1  ZINC000443933644    0.4300
     39 H39        -4.4894    2.5213   48.2637 H       1  ZINC000443933644    0.1400
     40 H40        -2.7440    2.0034   46.6455 H       1  ZINC000443933644    0.1300
     41 H41        -0.3722    2.0726   47.2856 H       1  ZINC000443933644    0.1300
     42 H42         0.2916    2.6595   49.5551 H       1  ZINC000443933644    0.1300
     43 H43         0.3281    2.6172   52.4989 H       1  ZINC000443933644    0.4200
     44 H44         2.4165    3.5290   52.5849 H       1  ZINC000443933644    0.0800
     45 H45         2.8153    4.4125   51.0920 H       1  ZINC000443933644    0.1000
     46 H46         2.3637    5.3080   52.5626 H       1  ZINC000443933644    0.1000
     47 H47        -2.1150    3.8384   53.4901 H       1  ZINC000443933644    0.1500
     48 H48        -4.4806    3.7714   52.8310 H       1  ZINC000443933644    0.1500
@<TRIPOS>BOND
     1     1     2    1
     2     1    30    1
     3     1    31    1
     4     1    32    1
     5     2     3    1
     6     2    33    1
     7     2    34    1
     8     3     4    1
     9     3     5    1
    10     3     6    1
    11     5    35    1
    12     5    36    1
    13     5    37    1
    14     6     7    1
    15     6     8    1
    16     6    26    1
    17     8     9   am
    18     8    38    1
    19     9    10    2
    20     9    11    2
    21     9    12    1
    22    12    25   ar
    23    12    13   ar
    24    13    18   ar
    25    13    14   ar
    26    14    15   ar
    27    14    39    1
    28    15    16   ar
    29    15    40    1
    30    16    17   ar
    31    16    41    1
    32    17    18   ar
    33    17    42    1
    34    18    19   ar
    35    19    20    1
    36    19    24   ar
    37    20    21   am
    38    20    43    1
    39    21    22    1
    40    21    23    2
    41    22    44    1
    42    22    45    1
    43    22    46    1
    44    24    25   ar
    45    24    47    1
    46    25    48    1
    47    26    27    1
    48    26    28    1
    49    26    29    1
@<TRIPOS>SUBSTRUCTURE
     1 ZINC000443933644        1 TEMP              0 ****  ****    0 ROOT


##########                                Name:    ZINC000826052721
##########                DOCK_Rotatable_Bonds:                   3
##########                         Heavy_Atoms:                  29
##########                    Molecular_Weight:             393.399
##########                DOCK_Rotatable_Bonds:                   3
##########                       Formal_Charge:        -4.47035e-07
##########                     HBond_Acceptors:                   9
##########                        HBond_Donors:                   2
##########                         Heavy_Atoms:                  29
##########                          Grid_Score:          -28.816597
##########                     Grid_vdw_energy:          -28.091274
##########                      Grid_es_energy:           -0.725322
##########           Internal_energy_repulsive:           23.504858

@<TRIPOS>MOLECULE
ZINC000826052721
 46 50 1 0 0
SMALL
USER_CHARGES


@<TRIPOS>ATOM
      1 C1         -7.2823    5.7547   49.7052 C.3     1  ZINC000826052721   -0.0400
      2 N2         -7.4121    4.3036   49.8936 N.4     1  ZINC000826052721   -0.3800
      3 H3         -7.6874    3.8734   49.0234 H       1  ZINC000826052721    0.4300
      4 C4         -8.4245    4.0305   50.9176 C.3     1  ZINC000826052721    0.0500
      5 C5         -8.4722    2.5595   51.2360 C.ar    1  ZINC000826052721   -0.1300
      6 C6         -9.5976    2.0545   51.8694 C.ar    1  ZINC000826052721   -0.1000
      7 C7         -9.6779    0.7125   52.1840 C.ar    1  ZINC000826052721   -0.1000
      8 C8         -8.6318   -0.1333   51.8667 C.ar    1  ZINC000826052721   -0.0800
      9 C9         -7.5107    0.3677   51.2345 C.ar    1  ZINC000826052721   -0.0800
     10 C10        -7.4301    1.7143   50.9175 C.ar    1  ZINC000826052721   -0.1200
     11 C11        -6.1910    2.2211   50.2246 C.3     1  ZINC000826052721    0.1100
     12 H12        -6.2207    1.9344   49.1733 H       1  ZINC000826052721    0.1100
     13 N13        -5.0026    1.6340   50.8576 N.3     1  ZINC000826052721   -0.6200
     14 C14        -4.2492    2.6040   51.4925 C.ar    1  ZINC000826052721    0.1600
     15 C15        -3.1148    3.1515   50.8836 C.ar    1  ZINC000826052721   -0.0400
     16 C16        -2.6978    2.6994   49.5403 C.2     1  ZINC000826052721    0.0700
     17 N17        -3.4123    1.9605   48.6882 N.2     1  ZINC000826052721   -0.3800
     18 N18        -2.6957    1.7880   47.6304 N.2     1  ZINC000826052721   -0.1600
     19 N19        -1.5619    2.3770   47.7842 N.2     1  ZINC000826052721   -0.1700
     20 N20        -1.5299    2.9444   48.9413 N.pl3   1  ZINC000826052721   -0.3400
     21 C21        -2.3801    4.1368   51.5587 C.ar    1  ZINC000826052721    0.1800
     22 N22        -2.7230    4.5530   52.7517 N.ar    1  ZINC000826052721   -0.4700
     23 C23        -3.7948    4.0659   53.3913 C.ar    1  ZINC000826052721    0.0900
     24 C24        -4.1396    4.5298   54.6738 C.ar    1  ZINC000826052721    0.1700
     25 F25        -3.3890    5.4782   55.2757 F       1  ZINC000826052721   -0.1100
     26 C26        -5.2345    4.0200   55.3071 C.ar    1  ZINC000826052721   -0.1900
     27 C27        -6.0217    3.0412   54.7033 C.ar    1  ZINC000826052721    0.1300
     28 F28        -7.1001    2.5550   55.3559 F       1  ZINC000826052721   -0.1300
     29 C29        -5.7154    2.5679   53.4601 C.ar    1  ZINC000826052721   -0.1500
     30 C30        -4.5967    3.0716   52.7819 C.ar    1  ZINC000826052721   -0.0600
     31 C31        -6.1250    3.7451   50.3342 C.3     1  ZINC000826052721    0.0000
     32 H32        -6.9814    6.2177   50.6451 H       1  ZINC000826052721    0.1200
     33 H33        -6.5291    5.9563   48.9434 H       1  ZINC000826052721    0.1300
     34 H34        -8.2399    6.1669   49.3873 H       1  ZINC000826052721    0.1200
     35 H35        -9.4004    4.3512   50.5528 H       1  ZINC000826052721    0.1400
     36 H36        -8.1795    4.5864   51.8226 H       1  ZINC000826052721    0.1400
     37 H37       -10.4158    2.7143   52.1176 H       1  ZINC000826052721    0.1300
     38 H38       -10.5568    0.3241   52.6771 H       1  ZINC000826052721    0.1300
     39 H39        -8.6911   -1.1834   52.1121 H       1  ZINC000826052721    0.1300
     40 H40        -6.6935   -0.2931   50.9857 H       1  ZINC000826052721    0.1400
     41 H41        -4.4471    1.1278   50.1845 H       1  ZINC000826052721    0.4100
     42 H42        -1.5070    4.5600   51.0842 H       1  ZINC000826052721    0.1800
     43 H43        -5.4952    4.3798   56.2915 H       1  ZINC000826052721    0.1600
     44 H44        -6.3318    1.8088   53.0014 H       1  ZINC000826052721    0.1400
     45 H45        -5.9368    4.0296   51.3694 H       1  ZINC000826052721    0.1400
     46 H46        -5.3257    4.1235   49.6969 H       1  ZINC000826052721    0.1400
@<TRIPOS>BOND
     1     1     2    1
     2     1    32    1
     3     1    33    1
     4     1    34    1
     5     2     3    1
     6     2    31    1
     7     2     4    1
     8     4     5    1
     9     4    35    1
    10     4    36    1
    11     5    10   ar
    12     5     6   ar
    13     6     7   ar
    14     6    37    1
    15     7     8   ar
    16     7    38    1
    17     8     9   ar
    18     8    39    1
    19     9    10   ar
    20     9    40    1
    21    10    11    1
    22    11    12    1
    23    11    13    1
    24    11    31    1
    25    13    14    1
    26    13    41    1
    27    14    30   ar
    28    14    15   ar
    29    15    16    1
    30    15    21   ar
    31    16    20    1
    32    16    17    2
    33    17    18    1
    34    18    19    2
    35    19    20    1
    36    21    22   ar
    37    21    42    1
    38    22    23   ar
    39    23    30   ar
    40    23    24   ar
    41    24    25    1
    42    24    26   ar
    43    26    27   ar
    44    26    43    1
    45    27    28    1
    46    27    29   ar
    47    29    30   ar
    48    29    44    1
    49    31    45    1
    50    31    46    1
@<TRIPOS>SUBSTRUCTURE
     1 ZINC000826052721        1 TEMP              0 ****  ****    0 ROOT


##########                                Name:    ZINC001401207732
##########                DOCK_Rotatable_Bonds:                   8
##########                         Heavy_Atoms:                  23
##########                    Molecular_Weight:             337.446
##########                DOCK_Rotatable_Bonds:                   8
##########                       Formal_Charge:          -0.0199995
##########                     HBond_Acceptors:                   8
##########                        HBond_Donors:                   1
##########                         Heavy_Atoms:                  23
##########                          Grid_Score:          -28.809566
##########                     Grid_vdw_energy:          -28.199974
##########                      Grid_es_energy:           -0.609592
##########           Internal_energy_repulsive:           21.505585

@<TRIPOS>MOLECULE
ZINC001401207732
 46 47 1 0 0
SMALL
USER_CHARGES


@<TRIPOS>ATOM
      1 C1        -11.3798   -0.9741   60.5661 C.3     1  ZINC001401207732   -0.0900
      2 C2        -10.0929   -0.6464   59.8536 C.2     1  ZINC001401207732    0.1500
      3 C3        -10.0384   -0.3453   58.5319 C.2     1  ZINC001401207732   -0.3000
      4 C4        -11.1776   -0.2907   57.6096 C.2     1  ZINC001401207732    0.6100
      5 O5        -11.8501    0.7206   57.5326 O.2     1  ZINC001401207732   -0.5200
      6 N6        -11.4796   -1.3604   56.8474 N.am    1  ZINC001401207732   -0.5900
      7 C7        -10.6699   -2.5778   56.9402 C.3     1  ZINC001401207732    0.0700
      8 C8        -12.6173   -1.3059   55.9263 C.3     1  ZINC001401207732    0.1400
      9 H9        -12.7014   -2.2545   55.3961 H       1  ZINC001401207732    0.1100
     10 C10       -13.9017   -1.0480   56.7169 C.3     1  ZINC001401207732   -0.1600
     11 C11       -12.4035   -0.1752   54.9179 C.3     1  ZINC001401207732    0.0500
     12 N12       -11.1064   -0.3524   54.2515 N.3     1  ZINC001401207732   -0.6800
     13 C13       -10.9128    0.6550   53.1999 C.3     1  ZINC001401207732    0.1500
     14 C14        -9.6182    0.3847   52.4774 C.2     1  ZINC001401207732    0.1800
     15 N15        -8.9078    1.2519   51.7972 N.2     1  ZINC001401207732   -0.4800
     16 C16        -7.8468    0.5670   51.3345 C.2     1  ZINC001401207732    0.1800
     17 C17        -6.7277    1.1196   50.4899 C.3     1  ZINC001401207732   -0.0100
     18 C18        -6.9102    2.6298   50.3263 C.3     1  ZINC001401207732   -0.1500
     19 C19        -5.3873    0.8389   51.1721 C.3     1  ZINC001401207732   -0.1500
     20 N20        -7.9639   -0.6590   51.7492 N.2     1  ZINC001401207732   -0.3800
     21 O21        -8.9720   -0.7833   52.4123 O.3     1  ZINC001401207732    0.0900
     22 S22        -8.3526   -0.0390   58.1202 S.3     1  ZINC001401207732    0.1800
     23 C23        -7.8939   -0.3309   59.7409 C.2     1  ZINC001401207732    0.0100
     24 N24        -8.9309   -0.6271   60.4567 N.2     1  ZINC001401207732   -0.4800
     25 H25       -11.5592   -2.0481   60.5166 H       1  ZINC001401207732    0.0800
     26 H26       -11.3063   -0.6657   61.6090 H       1  ZINC001401207732    0.0800
     27 H27       -12.2045   -0.4454   60.0882 H       1  ZINC001401207732    0.1000
     28 H28        -9.7937   -2.4812   56.2989 H       1  ZINC001401207732    0.0600
     29 H29       -10.3506   -2.7242   57.9721 H       1  ZINC001401207732    0.0800
     30 H30       -11.2628   -3.4339   56.6184 H       1  ZINC001401207732    0.0900
     31 H31       -14.7482   -1.0074   56.0314 H       1  ZINC001401207732    0.0700
     32 H32       -14.0541   -1.8535   57.4352 H       1  ZINC001401207732    0.0700
     33 H33       -13.8177   -0.0994   57.2470 H       1  ZINC001401207732    0.0600
     34 H34       -12.4170    0.7827   55.4379 H       1  ZINC001401207732    0.0800
     35 H35       -13.1999   -0.1962   54.1741 H       1  ZINC001401207732    0.0500
     36 H36       -11.0158   -1.2858   53.8790 H       1  ZINC001401207732    0.3600
     37 H37       -10.8776    1.6473   53.6496 H       1  ZINC001401207732    0.1100
     38 H38       -11.7408    0.6057   52.4927 H       1  ZINC001401207732    0.0800
     39 H39        -6.7432    0.6435   49.5095 H       1  ZINC001401207732    0.1000
     40 H40        -6.1008    3.0296   49.7154 H       1  ZINC001401207732    0.0700
     41 H41        -7.8651    2.8299   49.8403 H       1  ZINC001401207732    0.0600
     42 H42        -6.8947    3.1061   51.3066 H       1  ZINC001401207732    0.0600
     43 H43        -5.2573   -0.2370   51.2887 H       1  ZINC001401207732    0.0600
     44 H44        -4.5780    1.2386   50.5612 H       1  ZINC001401207732    0.0700
     45 H45        -5.3718    1.3151   52.1525 H       1  ZINC001401207732    0.0600
     46 H46        -6.8816   -0.2801   60.1138 H       1  ZINC001401207732    0.2000
@<TRIPOS>BOND
     1     1     2    1
     2     1    25    1
     3     1    26    1
     4     1    27    1
     5     2    24    1
     6     2     3    2
     7     3     4    1
     8     3    22    1
     9     4     5    2
    10     4     6   am
    11     6     7    1
    12     6     8    1
    13     7    28    1
    14     7    29    1
    15     7    30    1
    16     8     9    1
    17     8    10    1
    18     8    11    1
    19    10    31    1
    20    10    32    1
    21    10    33    1
    22    11    12    1
    23    11    34    1
    24    11    35    1
    25    12    13    1
    26    12    36    1
    27    13    14    1
    28    13    37    1
    29    13    38    1
    30    14    21    1
    31    14    15    2
    32    15    16    1
    33    16    17    1
    34    16    20    2
    35    17    18    1
    36    17    19    1
    37    17    39    1
    38    18    40    1
    39    18    41    1
    40    18    42    1
    41    19    43    1
    42    19    44    1
    43    19    45    1
    44    20    21    1
    45    22    23    1
    46    23    24    2
    47    23    46    1
@<TRIPOS>SUBSTRUCTURE
     1 ZINC001401207732        1 TEMP              0 ****  ****    0 ROOT


##########                                Name:    ZINC000550011575
##########                DOCK_Rotatable_Bonds:                   6
##########                         Heavy_Atoms:                  28
##########                    Molecular_Weight:             423.935
##########                DOCK_Rotatable_Bonds:                   6
##########                       Formal_Charge:          -0.0100002
##########                     HBond_Acceptors:                   7
##########                        HBond_Donors:                   0
##########                         Heavy_Atoms:                  28
##########                          Grid_Score:          -28.807932
##########                     Grid_vdw_energy:          -27.703312
##########                      Grid_es_energy:           -1.104620
##########           Internal_energy_repulsive:           30.733488

@<TRIPOS>MOLECULE
ZINC000550011575
 51 53 1 0 0
SMALL
USER_CHARGES


@<TRIPOS>ATOM
      1 C1         -4.7351    4.1448   55.6073 C.3     1  ZINC000550011575   -0.1400
      2 C2         -5.8870    3.5176   54.8194 C.3     1  ZINC000550011575   -0.6100
      3 H3         -5.7566    2.4359   54.7844 H       1  ZINC000550011575    0.1500
      4 C4         -7.1941    3.8443   55.4946 C.2     1  ZINC000550011575    0.5400
      5 O5         -7.6098    4.9836   55.4920 O.2     1  ZINC000550011575   -0.5100
      6 N6         -7.9009    2.8704   56.1016 N.am    1  ZINC000550011575   -0.6000
      7 C7         -9.1724    3.1877   56.7565 C.3     1  ZINC000550011575    0.0600
      8 C8         -7.3977    1.4946   56.1064 C.3     1  ZINC000550011575    0.1500
      9 C9         -8.3915    0.5985   56.7996 C.ar    1  ZINC000550011575   -0.1500
     10 C10        -8.2951    0.3821   58.1633 C.ar    1  ZINC000550011575    0.1400
     11 F11        -7.3100    0.9740   58.8737 F       1  ZINC000550011575   -0.1100
     12 C12        -9.2093   -0.4411   58.7992 C.ar    1  ZINC000550011575   -0.1500
     13 C13       -10.2170   -1.0459   58.0724 C.ar    1  ZINC000550011575   -0.0700
     14 C14       -10.3132   -0.8297   56.7103 C.ar    1  ZINC000550011575   -0.1300
     15 C15        -9.4040   -0.0035   56.0744 C.ar    1  ZINC000550011575    0.0000
     16 Cl16       -9.5262    0.2679   54.3641 Cl      1  ZINC000550011575   -0.0500
     17 S17        -5.8963    4.1805   53.1309 S.o2    1  ZINC000550011575    2.4500
     18 O18        -7.0733    3.7301   52.4742 O.2     1  ZINC000550011575   -0.9200
     19 O19        -5.6251    5.5741   53.1901 O.2     1  ZINC000550011575   -0.9100
     20 C20        -4.4662    3.3442   52.3921 C.3     1  ZINC000550011575   -0.5300
     21 H21        -3.8216    2.9660   53.1855 H       1  ZINC000550011575    0.1500
     22 C22        -3.6839    4.3419   51.5404 C.3     1  ZINC000550011575   -0.1100
     23 C23        -2.6133    3.5742   50.7561 C.3     1  ZINC000550011575   -0.1100
     24 C24        -3.3098    2.7233   49.6960 C.3     1  ZINC000550011575   -0.0900
     25 C25        -4.4087    1.9003   50.3160 C.ar    1  ZINC000550011575   -0.0600
     26 C26        -4.8846    0.8114   49.5977 C.ar    1  ZINC000550011575   -0.1200
     27 C27        -5.8941    0.0215   50.1086 C.ar    1  ZINC000550011575   -0.1100
     28 C28        -6.4372    0.3164   51.3450 C.ar    1  ZINC000550011575   -0.1100
     29 C29        -5.9640    1.3966   52.0613 C.ar    1  ZINC000550011575   -0.1500
     30 C30        -4.9456    2.1911   51.5497 C.ar    1  ZINC000550011575   -0.0800
     31 H31        -3.7858    3.7764   55.2182 H       1  ZINC000550011575    0.0900
     32 H32        -4.7733    5.2293   55.5050 H       1  ZINC000550011575    0.0900
     33 H33        -4.8256    3.8756   56.6595 H       1  ZINC000550011575    0.0800
     34 H34        -9.9868    3.0808   56.0400 H       1  ZINC000550011575    0.0700
     35 H35        -9.3311    2.5053   57.5915 H       1  ZINC000550011575    0.0800
     36 H36        -9.1452    4.2130   57.1253 H       1  ZINC000550011575    0.0700
     37 H37        -7.2570    1.1556   55.0800 H       1  ZINC000550011575    0.1000
     38 H38        -6.4450    1.4580   56.6348 H       1  ZINC000550011575    0.1100
     39 H39        -9.1345   -0.6107   59.8632 H       1  ZINC000550011575    0.1500
     40 H40       -10.9295   -1.6882   58.5686 H       1  ZINC000550011575    0.1500
     41 H41       -11.1010   -1.3032   56.1431 H       1  ZINC000550011575    0.1400
     42 H42        -4.3599    4.8412   50.8463 H       1  ZINC000550011575    0.0800
     43 H43        -3.2076    5.0806   52.1851 H       1  ZINC000550011575    0.0900
     44 H44        -1.9355    4.2787   50.2741 H       1  ZINC000550011575    0.0800
     45 H45        -2.0530    2.9301   51.4339 H       1  ZINC000550011575    0.0700
     46 H46        -3.7358    3.3759   48.9341 H       1  ZINC000550011575    0.0800
     47 H47        -2.5807    2.0587   49.2327 H       1  ZINC000550011575    0.0800
     48 H48        -4.4614    0.5809   48.6312 H       1  ZINC000550011575    0.1300
     49 H49        -6.2588   -0.8240   49.5442 H       1  ZINC000550011575    0.1300
     50 H50        -7.2295   -0.2964   51.7489 H       1  ZINC000550011575    0.1300
     51 H51        -6.3893    1.6267   53.0269 H       1  ZINC000550011575    0.1700
@<TRIPOS>BOND
     1     1     2    1
     2     1    31    1
     3     1    32    1
     4     1    33    1
     5     2     3    1
     6     2     4    1
     7     2    17    1
     8     4     5    2
     9     4     6   am
    10     6     7    1
    11     6     8    1
    12     7    34    1
    13     7    35    1
    14     7    36    1
    15     8     9    1
    16     8    37    1
    17     8    38    1
    18     9    15   ar
    19     9    10   ar
    20    10    11    1
    21    10    12   ar
    22    12    13   ar
    23    12    39    1
    24    13    14   ar
    25    13    40    1
    26    14    15   ar
    27    14    41    1
    28    15    16    1
    29    17    18    2
    30    17    19    2
    31    17    20    1
    32    20    21    1
    33    20    30    1
    34    20    22    1
    35    22    23    1
    36    22    42    1
    37    22    43    1
    38    23    24    1
    39    23    44    1
    40    23    45    1
    41    24    25    1
    42    24    46    1
    43    24    47    1
    44    25    30   ar
    45    25    26   ar
    46    26    27   ar
    47    26    48    1
    48    27    28   ar
    49    27    49    1
    50    28    29   ar
    51    28    50    1
    52    29    30   ar
    53    29    51    1
@<TRIPOS>SUBSTRUCTURE
     1 ZINC000550011575        1 TEMP              0 ****  ****    0 ROOT


##########                                Name:    ZINC000426607143
##########                DOCK_Rotatable_Bonds:                   3
##########                         Heavy_Atoms:                  25
##########                    Molecular_Weight:             419.302
##########                DOCK_Rotatable_Bonds:                   3
##########                       Formal_Charge:         1.49012e-07
##########                     HBond_Acceptors:                   7
##########                        HBond_Donors:                   0
##########                         Heavy_Atoms:                  25
##########                          Grid_Score:          -28.801720
##########                     Grid_vdw_energy:          -28.866093
##########                      Grid_es_energy:            0.064373
##########           Internal_energy_repulsive:            8.726023

@<TRIPOS>MOLECULE
ZINC000426607143
 40 43 1 0 0
SMALL
USER_CHARGES


@<TRIPOS>ATOM
      1 C1         -0.9139    2.1700   48.4051 C.3     1  ZINC000426607143   -0.0900
      2 C2         -0.8028    2.8124   49.7639 C.2     1  ZINC000426607143    0.1600
      3 N3          0.3476    3.1317   50.2727 N.2     1  ZINC000426607143   -0.4600
      4 S4          0.0586    3.8214   51.7942 S.3     1  ZINC000426607143    0.2900
      5 C5         -1.6541    3.6714   51.7338 C.2     1  ZINC000426607143   -0.1300
      6 C6         -2.6446    4.0937   52.7882 C.3     1  ZINC000426607143   -0.0800
      7 C7         -1.9267    3.0958   50.5285 C.2     1  ZINC000426607143   -0.1200
      8 C8         -3.3056    2.7894   50.0765 C.2     1  ZINC000426607143    0.2500
      9 N9         -3.8476    3.1450   48.9401 N.2     1  ZINC000426607143   -0.3700
     10 O10        -4.9881    2.7370   48.8767 O.3     1  ZINC000426607143    0.0900
     11 C11        -5.2967    2.0651   49.9902 C.2     1  ZINC000426607143    0.2000
     12 C12        -6.6148    1.4035   50.3001 C.3     1  ZINC000426607143   -0.0300
     13 H13        -7.3086    1.5298   49.4691 H       1  ZINC000426607143    0.1600
     14 C14        -6.4076   -0.0974   50.6088 C.3     1  ZINC000426607143   -0.1200
     15 C15        -7.4533   -0.3377   51.7201 C.3     1  ZINC000426607143    0.1000
     16 N16        -7.6597    0.9703   52.3531 N.am    1  ZINC000426607143   -0.5800
     17 C17        -8.2554    1.1562   53.6058 C.ar    1  ZINC000426607143    0.1700
     18 C18        -7.4645    1.3339   54.7327 C.ar    1  ZINC000426607143   -0.1000
     19 C19        -8.0554    1.5172   55.9680 C.ar    1  ZINC000426607143   -0.1000
     20 C20        -9.4331    1.5232   56.0832 C.ar    1  ZINC000426607143   -0.1000
     21 C21       -10.2245    1.3465   54.9629 C.ar    1  ZINC000426607143   -0.0900
     22 C22        -9.6400    1.1689   53.7236 C.ar    1  ZINC000426607143   -0.0800
     23 Br23      -10.7227    0.9273   52.1921 Br      1  ZINC000426607143   -0.0400
     24 C24        -7.2047    1.9692   51.5731 C.2     1  ZINC000426607143    0.5300
     25 O25        -7.2573    3.1482   51.8531 O.2     1  ZINC000426607143   -0.4900
     26 N26        -4.2368    2.0852   50.7594 N.2     1  ZINC000426607143   -0.4600
     27 H27        -1.0018    2.9445   47.6432 H       1  ZINC000426607143    0.0900
     28 H28        -0.0242    1.5705   48.2128 H       1  ZINC000426607143    0.0800
     29 H29        -1.7962    1.5306   48.3766 H       1  ZINC000426607143    0.1100
     30 H30        -2.1117    4.5267   53.6348 H       1  ZINC000426607143    0.0800
     31 H31        -3.3261    4.8346   52.3705 H       1  ZINC000426607143    0.0900
     32 H32        -3.2123    3.2250   53.1220 H       1  ZINC000426607143    0.0900
     33 H33        -6.6220   -0.7091   49.7325 H       1  ZINC000426607143    0.1100
     34 H34        -5.3984   -0.2844   50.9758 H       1  ZINC000426607143    0.1000
     35 H35        -8.3865   -0.6991   51.2881 H       1  ZINC000426607143    0.0900
     36 H36        -7.0720   -1.0533   52.4486 H       1  ZINC000426607143    0.0900
     37 H37        -6.3882    1.3286   54.6439 H       1  ZINC000426607143    0.1400
     38 H38        -7.4403    1.6554   56.8448 H       1  ZINC000426607143    0.1400
     39 H39        -9.8923    1.6660   57.0502 H       1  ZINC000426607143    0.1400
     40 H40       -11.3005    1.3518   55.0562 H       1  ZINC000426607143    0.1400
@<TRIPOS>BOND
     1     1     2    1
     2     1    27    1
     3     1    28    1
     4     1    29    1
     5     2     7    1
     6     2     3    2
     7     3     4    1
     8     4     5    1
     9     5     6    1
    10     5     7    2
    11     6    30    1
    12     6    31    1
    13     6    32    1
    14     7     8    1
    15     8    26    1
    16     8     9    2
    17     9    10    1
    18    10    11    1
    19    11    12    1
    20    11    26    2
    21    12    13    1
    22    12    24    1
    23    12    14    1
    24    14    15    1
    25    14    33    1
    26    14    34    1
    27    15    16    1
    28    15    35    1
    29    15    36    1
    30    16    17    1
    31    16    24   am
    32    17    22   ar
    33    17    18   ar
    34    18    19   ar
    35    18    37    1
    36    19    20   ar
    37    19    38    1
    38    20    21   ar
    39    20    39    1
    40    21    22   ar
    41    21    40    1
    42    22    23    1
    43    24    25    2
@<TRIPOS>SUBSTRUCTURE
     1 ZINC000426607143        1 TEMP              0 ****  ****    0 ROOT


##########                                Name:    ZINC000971513996
##########                DOCK_Rotatable_Bonds:                   6
##########                         Heavy_Atoms:                  27
##########                    Molecular_Weight:             369.464
##########                DOCK_Rotatable_Bonds:                   6
##########                       Formal_Charge:          -0.0300002
##########                     HBond_Acceptors:                   6
##########                        HBond_Donors:                   1
##########                         Heavy_Atoms:                  27
##########                          Grid_Score:          -28.789030
##########                     Grid_vdw_energy:          -28.687757
##########                      Grid_es_energy:           -0.101272
##########           Internal_energy_repulsive:           14.467175

@<TRIPOS>MOLECULE
ZINC000971513996
 54 57 1 0 0
SMALL
USER_CHARGES


@<TRIPOS>ATOM
      1 C1         -0.3396    2.9561   50.2538 C.3     1  ZINC000971513996   -0.1600
      2 C2         -1.7784    3.3091   49.8710 C.3     1  ZINC000971513996   -0.1400
      3 C3         -2.6806    3.1741   51.0993 C.3     1  ZINC000971513996    0.0800
      4 H4         -2.5901    2.1675   51.5077 H       1  ZINC000971513996    0.0800
      5 O5         -2.2846    4.1267   52.0882 O.3     1  ZINC000971513996   -0.3600
      6 C6         -2.9488    3.9711   53.3439 C.3     1  ZINC000971513996    0.0200
      7 C7         -4.1118    3.4281   50.7017 C.2     1  ZINC000971513996    0.5400
      8 O8         -4.6078    4.5194   50.8860 O.2     1  ZINC000971513996   -0.5100
      9 N9         -4.8406    2.4427   50.1413 N.am    1  ZINC000971513996   -0.6400
     10 C10        -4.6240    1.0360   49.7621 C.3     1  ZINC000971513996    0.1000
     11 C11        -6.1295    0.8080   49.9979 C.3     1  ZINC000971513996   -0.1200
     12 H12        -6.6111    0.1354   49.2881 H       1  ZINC000971513996    0.1100
     13 C13        -6.4207    0.4731   51.4628 C.3     1  ZINC000971513996   -0.1200
     14 C14        -7.7359    1.1377   51.8799 C.3     1  ZINC000971513996    0.1100
     15 N15        -7.6053    2.5827   51.6747 N.am    1  ZINC000971513996   -0.6000
     16 C16        -7.8120    3.4258   52.7057 C.2     1  ZINC000971513996    0.5900
     17 O17        -7.7049    4.6262   52.5406 O.2     1  ZINC000971513996   -0.5200
     18 C18        -8.1670    2.8945   54.0302 C.2     1  ZINC000971513996    0.0200
     19 C19        -7.2832    2.5372   54.9982 C.2     1  ZINC000971513996   -0.1000
     20 C20        -8.0265    2.0787   56.1128 C.ar    1  ZINC000971513996   -0.1100
     21 C21        -7.6655    1.5915   57.3753 C.ar    1  ZINC000971513996   -0.0600
     22 C22        -8.6339    1.2170   58.2609 C.ar    1  ZINC000971513996   -0.1200
     23 C23        -8.2420    0.6932   59.6185 C.3     1  ZINC000971513996   -0.1100
     24 C24        -9.9776    1.3147   57.9229 C.ar    1  ZINC000971513996   -0.0800
     25 C25       -10.3579    1.7906   56.6878 C.ar    1  ZINC000971513996   -0.1300
     26 C26        -9.3887    2.1784   55.7672 C.ar    1  ZINC000971513996    0.1100
     27 N27        -9.4526    2.6851   54.4907 N.pl3   1  ZINC000971513996   -0.5800
     28 C28        -7.2534    3.1153   50.3650 C.3     1  ZINC000971513996    0.0700
     29 C29        -6.2077    2.2848   49.6400 C.3     1  ZINC000971513996    0.1300
     30 H30        -6.2573    2.4404   48.5623 H       1  ZINC000971513996    0.1100
     31 H31         0.2834    2.9508   49.3594 H       1  ZINC000971513996    0.0600
     32 H32         0.0412    3.6962   50.9575 H       1  ZINC000971513996    0.0600
     33 H33        -0.3185    1.9696   50.7171 H       1  ZINC000971513996    0.0600
     34 H34        -1.8153    4.3348   49.5040 H       1  ZINC000971513996    0.0800
     35 H35        -2.1235    2.6311   49.0904 H       1  ZINC000971513996    0.0800
     36 H36        -4.0117    4.1788   53.2209 H       1  ZINC000971513996    0.0400
     37 H37        -2.8170    2.9496   53.7005 H       1  ZINC000971513996    0.0500
     38 H38        -2.5241    4.6663   54.0681 H       1  ZINC000971513996    0.0900
     39 H39        -4.3220    0.9070   48.7227 H       1  ZINC000971513996    0.0900
     40 H40        -3.9870    0.4907   50.4584 H       1  ZINC000971513996    0.0800
     41 H41        -6.5056   -0.6073   51.5794 H       1  ZINC000971513996    0.0900
     42 H42        -5.6100    0.8453   52.0895 H       1  ZINC000971513996    0.0700
     43 H43        -8.5524    0.7521   51.2693 H       1  ZINC000971513996    0.0800
     44 H44        -7.9341    0.9322   52.9319 H       1  ZINC000971513996    0.1000
     45 H45        -6.2068    2.5929   54.9299 H       1  ZINC000971513996    0.1500
     46 H46        -6.6233    1.5120   57.6472 H       1  ZINC000971513996    0.1200
     47 H47        -8.1730    1.5229   60.3220 H       1  ZINC000971513996    0.0700
     48 H48        -8.9938   -0.0158   59.9653 H       1  ZINC000971513996    0.0600
     49 H49        -7.2756    0.1937   59.5501 H       1  ZINC000971513996    0.0600
     50 H50       -10.7315    1.0141   58.6353 H       1  ZINC000971513996    0.1300
     51 H51       -11.4053    1.8625   56.4341 H       1  ZINC000971513996    0.1200
     52 H52       -10.2665    2.8649   53.9946 H       1  ZINC000971513996    0.4200
     53 H53        -8.1503    3.1470   49.7463 H       1  ZINC000971513996    0.0800
     54 H54        -6.8787    4.1314   50.4883 H       1  ZINC000971513996    0.1200
@<TRIPOS>BOND
     1     1     2    1
     2     1    31    1
     3     1    32    1
     4     1    33    1
     5     2     3    1
     6     2    34    1
     7     2    35    1
     8     3     4    1
     9     3     5    1
    10     3     7    1
    11     5     6    1
    12     6    36    1
    13     6    37    1
    14     6    38    1
    15     7     8    2
    16     7     9   am
    17     9    29    1
    18     9    10    1
    19    10    11    1
    20    10    39    1
    21    10    40    1
    22    11    12    1
    23    11    29    1
    24    11    13    1
    25    13    14    1
    26    13    41    1
    27    13    42    1
    28    14    15    1
    29    14    43    1
    30    14    44    1
    31    15    16   am
    32    15    28    1
    33    16    17    2
    34    16    18    1
    35    18    27    1
    36    18    19    2
    37    19    20    1
    38    19    45    1
    39    20    26   ar
    40    20    21   ar
    41    21    22   ar
    42    21    46    1
    43    22    23    1
    44    22    24   ar
    45    23    47    1
    46    23    48    1
    47    23    49    1
    48    24    25   ar
    49    24    50    1
    50    25    26   ar
    51    25    51    1
    52    26    27    1
    53    27    52    1
    54    28    29    1
    55    28    53    1
    56    28    54    1
    57    29    30    1
@<TRIPOS>SUBSTRUCTURE
     1 ZINC000971513996        1 TEMP              0 ****  ****    0 ROOT


##########                                Name:    ZINC000156038173
##########                DOCK_Rotatable_Bonds:                  10
##########                         Heavy_Atoms:                  27
##########                    Molecular_Weight:             396.357
##########                DOCK_Rotatable_Bonds:                  10
##########                       Formal_Charge:         -0.00999981
##########                     HBond_Acceptors:                  10
##########                        HBond_Donors:                   1
##########                         Heavy_Atoms:                  27
##########                          Grid_Score:          -28.769508
##########                     Grid_vdw_energy:          -27.548582
##########                      Grid_es_energy:           -1.220927
##########           Internal_energy_repulsive:           41.943081

@<TRIPOS>MOLECULE
ZINC000156038173
 48 48 1 0 0
SMALL
USER_CHARGES


@<TRIPOS>ATOM
      1 C1         -7.8677   -0.5581   51.6001 C.3     1  ZINC000156038173    0.0700
      2 N2         -7.1512    0.6688   51.9568 N.am    1  ZINC000156038173   -0.6300
      3 C3         -7.1382    1.1318   53.3467 C.3     1  ZINC000156038173    0.1500
      4 C4         -8.4756    0.7947   54.0090 C.3     1  ZINC000156038173   -0.1400
      5 C5         -8.5448    1.4511   55.3638 C.2     1  ZINC000156038173    0.4700
      6 O6         -8.9761    2.5748   55.4693 O.2     1  ZINC000156038173   -0.5000
      7 O7         -8.1272    0.7874   56.4533 O.3     1  ZINC000156038173   -0.3500
      8 C8         -8.2228    1.4816   57.7250 C.3     1  ZINC000156038173    0.1200
      9 C9         -7.7035    0.5739   58.8418 C.3     1  ZINC000156038173   -0.1800
     10 C10        -7.3819    2.7587   57.6733 C.3     1  ZINC000156038173   -0.1400
     11 C11        -9.6837    1.8437   57.9998 C.3     1  ZINC000156038173   -0.1800
     12 C12        -6.5039    1.3718   51.0063 C.2     1  ZINC000156038173    0.7100
     13 O13        -6.5158    0.9885   49.8526 O.2     1  ZINC000156038173   -0.5700
     14 N14        -5.8434    2.4997   51.3349 N.am    1  ZINC000156038173   -0.7400
     15 C15        -5.1412    3.2648   50.3016 C.3     1  ZINC000156038173    0.1700
     16 H16        -5.4828    2.9446   49.3172 H       1  ZINC000156038173    0.1500
     17 C17        -3.6579    3.0261   50.4206 C.ar    1  ZINC000156038173   -0.1300
     18 C18        -3.0403    3.1159   51.6538 C.ar    1  ZINC000156038173   -0.0700
     19 C19        -1.6796    2.8973   51.7646 C.ar    1  ZINC000156038173   -0.1000
     20 C20        -0.9341    2.5885   50.6425 C.ar    1  ZINC000156038173   -0.1100
     21 C21        -1.5497    2.4979   49.4061 C.ar    1  ZINC000156038173    0.0700
     22 F22        -0.8216    2.1961   48.3088 F       1  ZINC000156038173   -0.1200
     23 C23        -2.9152    2.7115   49.2958 C.ar    1  ZINC000156038173    0.1000
     24 F24        -3.5181    2.6236   48.0901 F       1  ZINC000156038173   -0.1200
     25 C25        -5.4341    4.7555   50.4831 C.3     1  ZINC000156038173    0.4500
     26 F26        -4.2381    5.4778   50.4109 F       1  ZINC000156038173   -0.1700
     27 F27        -6.3011    5.1868   49.4734 F       1  ZINC000156038173   -0.1600
     28 F28        -6.0307    4.9649   51.7311 F       1  ZINC000156038173   -0.1700
     29 H29        -8.8970   -0.3144   51.3370 H       1  ZINC000156038173    0.0600
     30 H30        -7.3774   -1.0309   50.7491 H       1  ZINC000156038173    0.0700
     31 H31        -7.8619   -1.2420   52.4488 H       1  ZINC000156038173    0.0800
     32 H32        -6.3306    0.6376   53.8867 H       1  ZINC000156038173    0.1000
     33 H33        -6.9834    2.2105   53.3689 H       1  ZINC000156038173    0.0900
     34 H34        -9.2919    1.1601   53.3861 H       1  ZINC000156038173    0.1100
     35 H35        -8.5620   -0.2858   54.1240 H       1  ZINC000156038173    0.1100
     36 H36        -6.6627    0.3160   58.6460 H       1  ZINC000156038173    0.0600
     37 H37        -7.7752    1.0951   59.7965 H       1  ZINC000156038173    0.0700
     38 H38        -8.3026   -0.3359   58.8786 H       1  ZINC000156038173    0.0800
     39 H39        -7.7519    3.4054   56.8776 H       1  ZINC000156038173    0.0700
     40 H40        -7.4536    3.2799   58.6279 H       1  ZINC000156038173    0.0800
     41 H41        -6.3411    2.5008   57.4774 H       1  ZINC000156038173    0.0700
     42 H42       -10.2828    0.9338   58.0367 H       1  ZINC000156038173    0.0800
     43 H43        -9.7555    2.3648   58.9545 H       1  ZINC000156038173    0.0700
     44 H44       -10.0537    2.4904   57.2041 H       1  ZINC000156038173    0.0600
     45 H45        -5.8328    2.8049   52.2556 H       1  ZINC000156038173    0.4100
     46 H46        -3.6211    3.3574   52.5316 H       1  ZINC000156038173    0.1400
     47 H47        -1.1987    2.9682   52.7290 H       1  ZINC000156038173    0.1500
     48 H48         0.1288    2.4184   50.7304 H       1  ZINC000156038173    0.1500
@<TRIPOS>BOND
     1     1     2    1
     2     1    29    1
     3     1    30    1
     4     1    31    1
     5     2     3    1
     6     2    12   am
     7     3     4    1
     8     3    32    1
     9     3    33    1
    10     4     5    1
    11     4    34    1
    12     4    35    1
    13     5     6    2
    14     5     7    1
    15     7     8    1
    16     8     9    1
    17     8    10    1
    18     8    11    1
    19     9    36    1
    20     9    37    1
    21     9    38    1
    22    10    39    1
    23    10    40    1
    24    10    41    1
    25    11    42    1
    26    11    43    1
    27    11    44    1
    28    12    13    2
    29    12    14   am
    30    14    15    1
    31    14    45    1
    32    15    16    1
    33    15    17    1
    34    15    25    1
    35    17    23   ar
    36    17    18   ar
    37    18    19   ar
    38    18    46    1
    39    19    20   ar
    40    19    47    1
    41    20    21   ar
    42    20    48    1
    43    21    22    1
    44    21    23   ar
    45    23    24    1
    46    25    26    1
    47    25    27    1
    48    25    28    1
@<TRIPOS>SUBSTRUCTURE
     1 ZINC000156038173        1 TEMP              0 ****  ****    0 ROOT


##########                                Name:    ZINC000885154703
##########                DOCK_Rotatable_Bonds:                   5
##########                         Heavy_Atoms:                  24
##########                    Molecular_Weight:             396.259
##########                DOCK_Rotatable_Bonds:                   5
##########                       Formal_Charge:          -0.0099998
##########                     HBond_Acceptors:                   6
##########                        HBond_Donors:                   1
##########                         Heavy_Atoms:                  24
##########                          Grid_Score:          -28.765572
##########                     Grid_vdw_energy:          -28.634069
##########                      Grid_es_energy:           -0.131501
##########           Internal_energy_repulsive:            7.934857

@<TRIPOS>MOLECULE
ZINC000885154703
 43 45 1 0 0
SMALL
USER_CHARGES


@<TRIPOS>ATOM
      1 C1        -14.8032   -3.4578   57.4015 C.3     1  ZINC000885154703   -0.1500
      2 C2        -14.0170   -3.7879   56.1311 C.3     1  ZINC000885154703   -0.0300
      3 C3        -12.9143   -2.7776   55.9459 C.2     1  ZINC000885154703    0.1700
      4 N4        -11.7037   -2.8667   56.4095 N.2     1  ZINC000885154703   -0.3800
      5 O5        -11.0577   -1.8919   56.0871 O.3     1  ZINC000885154703    0.0800
      6 C6        -11.8181   -1.0632   55.3652 C.2     1  ZINC000885154703    0.1800
      7 C7        -11.3954    0.2569   54.7740 C.3     1  ZINC000885154703    0.0000
      8 H8        -11.5619    1.0585   55.4937 H       1  ZINC000885154703    0.1300
      9 C9        -12.1887    0.5349   53.4805 C.3     1  ZINC000885154703   -0.1200
     10 C10       -11.1617    1.2200   52.5449 C.3     1  ZINC000885154703   -0.1300
     11 C11        -9.8523    0.4528   52.8545 C.3     1  ZINC000885154703    0.1400
     12 H12        -9.8280   -0.4936   52.3144 H       1  ZINC000885154703    0.1000
     13 N13        -8.6860    1.2691   52.5091 N.am    1  ZINC000885154703   -0.7100
     14 C14        -7.4520    0.7279   52.5384 C.2     1  ZINC000885154703    0.5700
     15 O15        -7.3067   -0.4375   52.8529 O.2     1  ZINC000885154703   -0.5100
     16 C16        -6.2763    1.5504   52.1885 C.ar    1  ZINC000885154703   -0.1600
     17 C17        -5.8069    2.5200   53.0798 C.ar    1  ZINC000885154703    0.1500
     18 F18        -6.4275    2.7080   54.2650 F       1  ZINC000885154703   -0.1200
     19 C19        -4.7048    3.2859   52.7446 C.ar    1  ZINC000885154703   -0.1500
     20 C20        -4.0696    3.0941   51.5325 C.ar    1  ZINC000885154703   -0.0400
     21 C21        -4.5302    2.1349   50.6453 C.ar    1  ZINC000885154703   -0.1100
     22 Br22       -3.6516    1.8827   48.9899 Br      1  ZINC000885154703   -0.0300
     23 C23        -5.6244    1.3597   50.9682 C.ar    1  ZINC000885154703    0.0100
     24 C24        -6.1227    0.3168   50.0012 C.3     1  ZINC000885154703   -0.1300
     25 C25        -9.9096    0.2051   54.3772 C.3     1  ZINC000885154703   -0.1300
     26 N26       -13.0009   -1.6207   55.2654 N.2     1  ZINC000885154703   -0.4800
     27 H27       -14.1339   -3.4889   58.2613 H       1  ZINC000885154703    0.0600
     28 H28       -15.2349   -2.4609   57.3128 H       1  ZINC000885154703    0.0600
     29 H29       -15.6008   -4.1886   57.5353 H       1  ZINC000885154703    0.0700
     30 H30       -13.5853   -4.7849   56.2197 H       1  ZINC000885154703    0.1000
     31 H31       -14.6863   -3.7569   55.2713 H       1  ZINC000885154703    0.0900
     32 H32       -12.5415   -0.3983   53.0414 H       1  ZINC000885154703    0.0800
     33 H33       -13.0258    1.2031   53.6825 H       1  ZINC000885154703    0.0900
     34 H34       -11.4461    1.0931   51.5004 H       1  ZINC000885154703    0.0800
     35 H35       -11.0583    2.2764   52.7926 H       1  ZINC000885154703    0.0800
     36 H36        -8.8018    2.1993   52.2595 H       1  ZINC000885154703    0.4000
     37 H37        -4.3403    4.0354   53.4315 H       1  ZINC000885154703    0.1500
     38 H38        -3.2099    3.6952   51.2754 H       1  ZINC000885154703    0.1500
     39 H39        -5.6222   -0.6311   50.1993 H       1  ZINC000885154703    0.0900
     40 H40        -7.1986    0.1921   50.1237 H       1  ZINC000885154703    0.0800
     41 H41        -5.9076    0.6349   48.9811 H       1  ZINC000885154703    0.0900
     42 H42        -9.3543    0.9819   54.9029 H       1  ZINC000885154703    0.0900
     43 H43        -9.4945   -0.7750   54.6119 H       1  ZINC000885154703    0.0800
@<TRIPOS>BOND
     1     1     2    1
     2     1    27    1
     3     1    28    1
     4     1    29    1
     5     2     3    1
     6     2    30    1
     7     2    31    1
     8     3    26    1
     9     3     4    2
    10     4     5    1
    11     5     6    1
    12     6     7    1
    13     6    26    2
    14     7     8    1
    15     7    25    1
    16     7     9    1
    17     9    10    1
    18     9    32    1
    19     9    33    1
    20    10    11    1
    21    10    34    1
    22    10    35    1
    23    11    12    1
    24    11    13    1
    25    11    25    1
    26    13    14   am
    27    13    36    1
    28    14    15    2
    29    14    16    1
    30    16    23   ar
    31    16    17   ar
    32    17    18    1
    33    17    19   ar
    34    19    20   ar
    35    19    37    1
    36    20    21   ar
    37    20    38    1
    38    21    22    1
    39    21    23   ar
    40    23    24    1
    41    24    39    1
    42    24    40    1
    43    24    41    1
    44    25    42    1
    45    25    43    1
@<TRIPOS>SUBSTRUCTURE
     1 ZINC000885154703        1 TEMP              0 ****  ****    0 ROOT


##########                                Name:    ZINC001060620810
##########                DOCK_Rotatable_Bonds:                   5
##########                         Heavy_Atoms:                  24
##########                    Molecular_Weight:             332.421
##########                DOCK_Rotatable_Bonds:                   5
##########                       Formal_Charge:           0.0299998
##########                     HBond_Acceptors:                   6
##########                        HBond_Donors:                   2
##########                         Heavy_Atoms:                  24
##########                          Grid_Score:          -28.762886
##########                     Grid_vdw_energy:          -27.816637
##########                      Grid_es_energy:           -0.946249
##########           Internal_energy_repulsive:            8.290345

@<TRIPOS>MOLECULE
ZINC001060620810
 49 52 1 0 0
SMALL
USER_CHARGES


@<TRIPOS>ATOM
      1 O1         -3.8360    4.2585   50.5466 O.2     1  ZINC001060620810   -0.5400
      2 C2         -4.3633    3.4400   51.2698 C.2     1  ZINC001060620810    0.5500
      3 N3         -3.9665    3.3190   52.5522 N.am    1  ZINC001060620810   -0.7200
      4 C4         -2.8997    4.1774   53.0730 C.3     1  ZINC001060620810    0.1400
      5 C5         -3.1417    4.4467   54.5595 C.3     1  ZINC001060620810   -0.1300
      6 C6         -2.0276    5.3431   55.1035 C.3     1  ZINC001060620810   -0.1300
      7 C7         -0.6780    4.6446   54.9247 C.3     1  ZINC001060620810    0.1600
      8 N8         -0.6844    3.3754   55.6562 N.pl3   1  ZINC001060620810   -0.6900
      9 C9         -0.2057    3.3220   56.9552 C.ar    1  ZINC001060620810    0.5600
     10 N10        -0.1769    2.1574   57.5856 N.ar    1  ZINC001060620810   -0.5400
     11 C11         0.2785    2.0697   58.8246 C.ar    1  ZINC001060620810    0.1700
     12 C12         0.7190    3.2188   59.4663 C.ar    1  ZINC001060620810   -0.0700
     13 F13         1.1858    3.1666   60.7330 F       1  ZINC001060620810   -0.1300
     14 C14         0.6696    4.4225   58.7774 C.ar    1  ZINC001060620810    0.1800
     15 N15         0.2069    4.4375   57.5380 N.ar    1  ZINC001060620810   -0.5500
     16 C16        -0.4360    4.3754   53.4382 C.3     1  ZINC001060620810   -0.1200
     17 C17        -1.5502    3.4789   52.8943 C.3     1  ZINC001060620810   -0.1300
     18 C18        -5.4620    2.5583   50.7346 C.3     1  ZINC001060620810   -0.1500
     19 C19        -6.6661    3.2799   50.1437 C.3     1  ZINC001060620810   -0.1500
     20 C20        -6.7793    2.6031   51.4928 C.3     1  ZINC001060620810   -0.1100
     21 H21        -6.8369    3.2678   52.3546 H       1  ZINC001060620810    0.1100
     22 C22        -7.6639    1.3640   51.5881 C.3     1  ZINC001060620810   -0.0900
     23 C23        -6.8538    0.1037   51.2836 C.3     1  ZINC001060620810   -0.1200
     24 C24        -6.1538    0.2875   49.9323 C.3     1  ZINC001060620810   -0.1200
     25 C25        -4.9836    1.2536   50.1170 C.3     1  ZINC001060620810   -0.0800
     26 H26        -4.3874    2.6636   53.1302 H       1  ZINC001060620810    0.4000
     27 H27        -2.8949    5.1218   52.5287 H       1  ZINC001060620810    0.0900
     28 H28        -4.1031    4.9442   54.6869 H       1  ZINC001060620810    0.0700
     29 H29        -3.1465    3.5022   55.1038 H       1  ZINC001060620810    0.0600
     30 H30        -2.2000    5.5349   56.1626 H       1  ZINC001060620810    0.0700
     31 H31        -2.0228    6.2875   54.5592 H       1  ZINC001060620810    0.0800
     32 H32         0.1157    5.2833   55.3123 H       1  ZINC001060620810    0.1000
     33 H33        -1.0239    2.5723   55.2311 H       1  ZINC001060620810    0.4100
     34 H34         0.3028    1.1167   59.3320 H       1  ZINC001060620810    0.1800
     35 H35         1.0042    5.3355   59.2472 H       1  ZINC001060620810    0.1800
     36 H36         0.5254    3.8779   53.3109 H       1  ZINC001060620810    0.0800
     37 H37        -0.4313    5.3198   52.8940 H       1  ZINC001060620810    0.0900
     38 H38        -1.5550    2.5346   53.4385 H       1  ZINC001060620810    0.0700
     39 H39        -1.3778    3.2872   51.8352 H       1  ZINC001060620810    0.0800
     40 H40        -6.6462    4.3696   50.1347 H       1  ZINC001060620810    0.1000
     41 H41        -7.1697    2.8108   49.2984 H       1  ZINC001060620810    0.1100
     42 H42        -8.4689    1.4606   50.8596 H       1  ZINC001060620810    0.0700
     43 H43        -8.0894    1.2871   52.5886 H       1  ZINC001060620810    0.0700
     44 H44        -7.5204   -0.7574   51.2364 H       1  ZINC001060620810    0.0700
     45 H45        -6.1084   -0.0496   52.0640 H       1  ZINC001060620810    0.0700
     46 H46        -6.8575    0.6991   49.2086 H       1  ZINC001060620810    0.0700
     47 H47        -5.7820   -0.6743   49.5789 H       1  ZINC001060620810    0.0700
     48 H48        -4.5307    1.4596   49.1471 H       1  ZINC001060620810    0.0700
     49 H49        -4.2407    0.7971   50.7710 H       1  ZINC001060620810    0.0700
@<TRIPOS>BOND
     1     1     2    2
     2     2     3   am
     3     2    18    1
     4     3     4    1
     5     3    26    1
     6     4    17    1
     7     4     5    1
     8     4    27    1
     9     5     6    1
    10     5    28    1
    11     5    29    1
    12     6     7    1
    13     6    30    1
    14     6    31    1
    15     7     8    1
    16     7    16    1
    17     7    32    1
    18     8     9    1
    19     8    33    1
    20     9    15   ar
    21     9    10   ar
    22    10    11   ar
    23    11    12   ar
    24    11    34    1
    25    12    13    1
    26    12    14   ar
    27    14    15   ar
    28    14    35    1
    29    16    17    1
    30    16    36    1
    31    16    37    1
    32    17    38    1
    33    17    39    1
    34    18    20    1
    35    18    25    1
    36    18    19    1
    37    19    20    1
    38    19    40    1
    39    19    41    1
    40    20    21    1
    41    20    22    1
    42    22    23    1
    43    22    42    1
    44    22    43    1
    45    23    24    1
    46    23    44    1
    47    23    45    1
    48    24    25    1
    49    24    46    1
    50    24    47    1
    51    25    48    1
    52    25    49    1
@<TRIPOS>SUBSTRUCTURE
     1 ZINC001060620810        1 TEMP              0 ****  ****    0 ROOT


##########                                Name:    ZINC000561219098
##########                DOCK_Rotatable_Bonds:                   4
##########                         Heavy_Atoms:                  28
##########                    Molecular_Weight:             423.273
##########                DOCK_Rotatable_Bonds:                   4
##########                       Formal_Charge:          0.00999953
##########                     HBond_Acceptors:                   9
##########                        HBond_Donors:                   1
##########                         Heavy_Atoms:                  28
##########                          Grid_Score:          -28.741488
##########                     Grid_vdw_energy:          -26.792515
##########                      Grid_es_energy:           -1.948972
##########           Internal_energy_repulsive:           11.205855

@<TRIPOS>MOLECULE
ZINC000561219098
 45 48 1 0 0
SMALL
USER_CHARGES


@<TRIPOS>ATOM
      1 C1        -14.2493    2.9768   48.3955 C.3     1  ZINC000561219098    0.0700
      2 N2        -13.3550    3.2478   49.5237 N.pl3   1  ZINC000561219098   -0.4500
      3 C3        -13.7189    3.2598   50.8383 C.2     1  ZINC000561219098   -0.0100
      4 C4        -12.6323    3.5458   51.5800 C.2     1  ZINC000561219098   -0.1700
      5 C5        -11.5448    3.7193   50.6872 C.2     1  ZINC000561219098   -0.1100
      6 C6        -10.1439    4.0467   51.0562 C.2     1  ZINC000561219098    0.1600
      7 N7         -9.7184    4.3564   52.2635 N.2     1  ZINC000561219098   -0.2700
      8 N8         -8.3402    4.5972   52.2058 N.pl3   1  ZINC000561219098   -0.4700
      9 C9         -7.9364    4.4224   50.9112 C.2     1  ZINC000561219098    0.0300
     10 C10        -6.5657    4.5740   50.3965 C.2     1  ZINC000561219098    0.5900
     11 O11        -6.0497    5.6746   50.3558 O.2     1  ZINC000561219098   -0.5000
     12 N12        -5.8826    3.4932   49.9703 N.am    1  ZINC000561219098   -0.6100
     13 C13        -6.4859    2.1517   50.0098 C.3     1  ZINC000561219098    0.0500
     14 C14        -5.5038    1.2000   50.7025 C.3     1  ZINC000561219098    0.0500
     15 O15        -4.2249    1.3026   50.0718 O.3     1  ZINC000561219098   -0.3700
     16 C16        -3.6255    2.5967   50.1712 C.3     1  ZINC000561219098    0.1200
     17 H17        -3.5288    2.8736   51.2210 H       1  ZINC000561219098    0.0900
     18 C18        -2.2621    2.5705   49.5299 C.ar    1  ZINC000561219098   -0.0500
     19 C19        -2.1257    2.1743   48.2130 C.ar    1  ZINC000561219098   -0.1000
     20 C20        -0.8734    2.1505   47.6234 C.ar    1  ZINC000561219098    0.1200
     21 F21        -0.7398    1.7636   46.3359 F       1  ZINC000561219098   -0.1200
     22 C22         0.2428    2.5240   48.3543 C.ar    1  ZINC000561219098   -0.0600
     23 Cl23        1.8138    2.4952   47.6161 Cl      1  ZINC000561219098   -0.0300
     24 C24         0.1048    2.9203   49.6721 C.ar    1  ZINC000561219098   -0.0700
     25 C25        -1.1479    2.9486   50.2583 C.ar    1  ZINC000561219098   -0.0300
     26 Cl26       -1.3208    3.4466   51.9123 Cl      1  ZINC000561219098   -0.0400
     27 C27        -4.5136    3.6207   49.4460 C.3     1  ZINC000561219098    0.0900
     28 C28        -9.0501    4.0722   50.1790 C.2     1  ZINC000561219098   -0.1700
     29 C29       -12.0241    3.5230   49.4301 C.2     1  ZINC000561219098    0.0300
     30 H30       -14.2587    1.9067   48.1882 H       1  ZINC000561219098    0.0800
     31 H31       -15.2578    3.3077   48.6437 H       1  ZINC000561219098    0.0900
     32 H32       -13.8970    3.5143   47.5152 H       1  ZINC000561219098    0.0900
     33 H33       -14.7116    3.0715   51.2198 H       1  ZINC000561219098    0.1700
     34 H34       -12.5959    3.6279   52.6563 H       1  ZINC000561219098    0.1400
     35 H35        -7.7724    4.8449   52.9521 H       1  ZINC000561219098    0.4400
     36 H36        -7.4206    2.1858   50.5696 H       1  ZINC000561219098    0.1000
     37 H37        -6.6781    1.8055   48.9943 H       1  ZINC000561219098    0.0900
     38 H38        -5.4139    1.4718   51.7542 H       1  ZINC000561219098    0.0700
     39 H39        -5.8692    0.1764   50.6201 H       1  ZINC000561219098    0.1200
     40 H40        -2.9962    1.8829   47.6440 H       1  ZINC000561219098    0.1600
     41 H41         0.9745    3.2112   50.2425 H       1  ZINC000561219098    0.1600
     42 H42        -4.5048    3.4207   48.3746 H       1  ZINC000561219098    0.0900
     43 H43        -4.1420    4.6279   49.6351 H       1  ZINC000561219098    0.1100
     44 H44        -9.0769    3.8624   49.1199 H       1  ZINC000561219098    0.1600
     45 H45       -11.4513    3.5822   48.5165 H       1  ZINC000561219098    0.1700
@<TRIPOS>BOND
     1     1     2    1
     2     1    30    1
     3     1    31    1
     4     1    32    1
     5     2    29    1
     6     2     3    1
     7     3     4    2
     8     3    33    1
     9     4     5    1
    10     4    34    1
    11     5     6    1
    12     5    29    2
    13     6    28    1
    14     6     7    2
    15     7     8    1
    16     8     9    1
    17     8    35    1
    18     9    10    1
    19     9    28    2
    20    10    11    2
    21    10    12   am
    22    12    27    1
    23    12    13    1
    24    13    14    1
    25    13    36    1
    26    13    37    1
    27    14    15    1
    28    14    38    1
    29    14    39    1
    30    15    16    1
    31    16    17    1
    32    16    18    1
    33    16    27    1
    34    18    25   ar
    35    18    19   ar
    36    19    20   ar
    37    19    40    1
    38    20    21    1
    39    20    22   ar
    40    22    23    1
    41    22    24   ar
    42    24    25   ar
    43    24    41    1
    44    25    26    1
    45    27    42    1
    46    27    43    1
    47    28    44    1
    48    29    45    1
@<TRIPOS>SUBSTRUCTURE
     1 ZINC000561219098        1 TEMP              0 ****  ****    0 ROOT


##########                                Name:    ZINC000864477301
##########                DOCK_Rotatable_Bonds:                   6
##########                         Heavy_Atoms:                  26
##########                    Molecular_Weight:             393.891
##########                DOCK_Rotatable_Bonds:                   6
##########                       Formal_Charge:         -0.00999978
##########                     HBond_Acceptors:                   7
##########                        HBond_Donors:                   1
##########                         Heavy_Atoms:                  26
##########                          Grid_Score:          -28.738861
##########                     Grid_vdw_energy:          -27.522179
##########                      Grid_es_energy:           -1.216681
##########           Internal_energy_repulsive:            8.139537

@<TRIPOS>MOLECULE
ZINC000864477301
 46 47 1 0 0
SMALL
USER_CHARGES


@<TRIPOS>ATOM
      1 C1        -10.0444    1.0942   55.0951 C.3     1  ZINC000864477301   -0.1500
      2 C2         -9.2279    0.2733   54.0951 C.3     1  ZINC000864477301    0.0600
      3 O3         -9.3773    0.8405   52.7669 O.3     1  ZINC000864477301   -0.3500
      4 C4         -8.3805    0.6144   51.8895 C.2     1  ZINC000864477301    0.5100
      5 O5         -7.9587   -0.5131   51.7269 O.2     1  ZINC000864477301   -0.5000
      6 C6         -7.8003    1.7374   51.1251 C.ar    1  ZINC000864477301   -0.1400
      7 C7         -8.5460    2.8976   50.9086 C.ar    1  ZINC000864477301   -0.0300
      8 C8         -7.9979    3.9426   50.1937 C.ar    1  ZINC000864477301   -0.1500
      9 C9         -6.7127    3.8426   49.6916 C.ar    1  ZINC000864477301   -0.0100
     10 C10        -5.9680    2.6954   49.9026 C.ar    1  ZINC000864477301   -0.4900
     11 S11        -4.3320    2.5786   49.2586 S.o     1  ZINC000864477301    1.3800
     12 O12        -4.1279    1.1760   49.1567 O.2     1  ZINC000864477301   -0.8100
     13 C13        -3.3147    3.2414   50.6063 C.3     1  ZINC000864477301   -0.4600
     14 H14        -3.5491    4.2956   50.7538 H       1  ZINC000864477301    0.1400
     15 C15        -3.6076    2.4687   51.8938 C.3     1  ZINC000864477301   -0.1400
     16 C16        -1.8568    3.0956   50.2536 C.2     1  ZINC000864477301    0.5500
     17 O17        -1.1170    2.4669   50.9806 O.2     1  ZINC000864477301   -0.5100
     18 N18        -1.3751    3.6638   49.1305 N.am    1  ZINC000864477301   -0.6800
     19 C19        -0.0209    3.5284   48.8030 C.ar    1  ZINC000864477301    0.1400
     20 C20         0.9379    4.2577   49.4927 C.ar    1  ZINC000864477301   -0.0600
     21 C21         0.5221    5.1968   50.5955 C.3     1  ZINC000864477301   -0.1100
     22 C22         2.2738    4.1216   49.1675 C.ar    1  ZINC000864477301   -0.1100
     23 C23         2.6568    3.2602   48.1564 C.ar    1  ZINC000864477301   -0.1000
     24 C24         1.7046    2.5320   47.4664 C.ar    1  ZINC000864477301   -0.1100
     25 C25         0.3673    2.6590   47.7903 C.ar    1  ZINC000864477301   -0.0200
     26 Cl26       -0.8275    1.7444   46.9245 Cl      1  ZINC000864477301   -0.0600
     27 C27        -6.5013    1.6456   50.6208 C.ar    1  ZINC000864477301    0.0100
     28 H28        -9.6870    2.1240   55.0976 H       1  ZINC000864477301    0.0700
     29 H29       -11.0958    1.0752   54.8082 H       1  ZINC000864477301    0.0700
     30 H30        -9.9323    0.6684   56.0922 H       1  ZINC000864477301    0.0800
     31 H31        -8.1766    0.2922   54.3821 H       1  ZINC000864477301    0.0700
     32 H32        -9.5853   -0.7565   54.0927 H       1  ZINC000864477301    0.0700
     33 H33        -9.5497    2.9767   51.2994 H       1  ZINC000864477301    0.1400
     34 H34        -8.5737    4.8407   50.0253 H       1  ZINC000864477301    0.1400
     35 H35        -6.2888    4.6633   49.1321 H       1  ZINC000864477301    0.1500
     36 H36        -2.9963    2.8670   52.7037 H       1  ZINC000864477301    0.0700
     37 H37        -4.6621    2.5742   52.1490 H       1  ZINC000864477301    0.0700
     38 H38        -3.3732    1.4144   51.7464 H       1  ZINC000864477301    0.0700
     39 H39        -1.9667    4.1668   48.5492 H       1  ZINC000864477301    0.4100
     40 H40         0.5107    4.6605   51.5444 H       1  ZINC000864477301    0.0800
     41 H41         1.2293    6.0241   50.6543 H       1  ZINC000864477301    0.0700
     42 H42        -0.4746    5.5851   50.3857 H       1  ZINC000864477301    0.0700
     43 H43         3.0199    4.6892   49.7038 H       1  ZINC000864477301    0.1400
     44 H44         3.7017    3.1559   47.9044 H       1  ZINC000864477301    0.1400
     45 H45         2.0070    1.8601   46.6767 H       1  ZINC000864477301    0.1400
     46 H46        -5.9189    0.7510   50.7850 H       1  ZINC000864477301    0.1400
@<TRIPOS>BOND
     1     1     2    1
     2     1    28    1
     3     1    29    1
     4     1    30    1
     5     2     3    1
     6     2    31    1
     7     2    32    1
     8     3     4    1
     9     4     5    2
    10     4     6    1
    11     6    27   ar
    12     6     7   ar
    13     7     8   ar
    14     7    33    1
    15     8     9   ar
    16     8    34    1
    17     9    10   ar
    18     9    35    1
    19    10    11    1
    20    10    27   ar
    21    11    12    2
    22    11    13    1
    23    13    14    1
    24    13    15    1
    25    13    16    1
    26    15    36    1
    27    15    37    1
    28    15    38    1
    29    16    17    2
    30    16    18   am
    31    18    19    1
    32    18    39    1
    33    19    25   ar
    34    19    20   ar
    35    20    21    1
    36    20    22   ar
    37    21    40    1
    38    21    41    1
    39    21    42    1
    40    22    23   ar
    41    22    43    1
    42    23    24   ar
    43    23    44    1
    44    24    25   ar
    45    24    45    1
    46    25    26    1
    47    27    46    1
@<TRIPOS>SUBSTRUCTURE
     1 ZINC000864477301        1 TEMP              0 ****  ****    0 ROOT


##########                                Name:    ZINC000279593480
##########                DOCK_Rotatable_Bonds:                   9
##########                         Heavy_Atoms:                  23
##########                    Molecular_Weight:              340.85
##########                DOCK_Rotatable_Bonds:                   9
##########                       Formal_Charge:          -0.0500002
##########                     HBond_Acceptors:                   6
##########                        HBond_Donors:                   3
##########                         Heavy_Atoms:                  23
##########                          Grid_Score:          -28.707561
##########                     Grid_vdw_energy:          -29.136292
##########                      Grid_es_energy:            0.428729
##########           Internal_energy_repulsive:           15.555546

@<TRIPOS>MOLECULE
ZINC000279593480
 48 49 1 0 0
SMALL
USER_CHARGES


@<TRIPOS>ATOM
      1 C1        -11.4766    1.6574   55.2295 C.3     1  ZINC000279593480   -0.1400
      2 C2        -11.0262    0.5866   56.2253 C.3     1  ZINC000279593480   -0.1400
      3 C3        -10.4990   -0.6302   55.4621 C.3     1  ZINC000279593480    0.1700
      4 H4        -11.2139   -0.9120   54.6892 H       1  ZINC000279593480    0.0900
      5 C5        -10.3099   -1.7979   56.4323 C.3     1  ZINC000279593480   -0.0900
      6 C6        -11.6566   -2.2775   56.9098 C.ar    1  ZINC000279593480   -0.0800
      7 C7        -11.8637   -2.5296   58.2531 C.ar    1  ZINC000279593480   -0.1000
      8 C8        -13.0985   -2.9694   58.6916 C.ar    1  ZINC000279593480   -0.1100
      9 C9        -14.1273   -3.1572   57.7858 C.ar    1  ZINC000279593480   -0.0400
     10 Cl10      -15.6786   -3.7091   58.3358 Cl      1  ZINC000279593480   -0.0700
     11 C11       -13.9193   -2.9047   56.4415 C.ar    1  ZINC000279593480   -0.1100
     12 C12       -12.6857   -2.4596   56.0049 C.ar    1  ZINC000279593480   -0.1000
     13 N13        -9.2142   -0.2982   54.8413 N.am    1  ZINC000279593480   -0.7400
     14 C14        -9.1486   -0.0537   53.5175 C.2     1  ZINC000279593480    0.7100
     15 O15       -10.1561   -0.1072   52.8388 O.2     1  ZINC000279593480   -0.5800
     16 N16        -7.9664    0.2501   52.9460 N.am    1  ZINC000279593480   -0.7500
     17 C17        -7.8955    0.5175   51.5075 C.3     1  ZINC000279593480    0.1200
     18 C18        -6.7267    1.4627   51.2214 C.3     1  ZINC000279593480    0.0900
     19 O19        -6.6826    2.5104   52.1922 O.3     1  ZINC000279593480   -0.5400
     20 C20        -5.3928    0.6832   51.2007 C.3     1  ZINC000279593480   -0.1900
     21 C21        -4.8590    0.8910   49.7660 C.3     1  ZINC000279593480    0.0500
     22 O22        -5.4814    2.1134   49.3141 O.3     1  ZINC000279593480   -0.3600
     23 C23        -6.8411    2.0491   49.7968 C.3     1  ZINC000279593480    0.0900
     24 H24        -7.4381    1.3932   49.1633 H       1  ZINC000279593480    0.0800
     25 C25        -7.4568    3.4491   49.8425 C.3     1  ZINC000279593480   -0.1400
     26 H26       -12.2673    1.2550   54.5962 H       1  ZINC000279593480    0.0600
     27 H27       -11.8521    2.5242   55.7732 H       1  ZINC000279593480    0.0400
     28 H28       -10.6311    1.9556   54.6095 H       1  ZINC000279593480    0.0600
     29 H29       -10.2353    0.9889   56.8584 H       1  ZINC000279593480    0.0600
     30 H30       -11.8716    0.2883   56.8452 H       1  ZINC000279593480    0.0700
     31 H31        -9.7934   -2.6124   55.9244 H       1  ZINC000279593480    0.0800
     32 H32        -9.7179   -1.4687   57.2862 H       1  ZINC000279593480    0.0900
     33 H33       -11.0604   -2.3832   58.9601 H       1  ZINC000279593480    0.1300
     34 H34       -13.2602   -3.1667   59.7411 H       1  ZINC000279593480    0.1300
     35 H35       -14.7219   -3.0515   55.7339 H       1  ZINC000279593480    0.1300
     36 H36       -12.5234   -2.2620   54.9557 H       1  ZINC000279593480    0.1300
     37 H37        -8.4107   -0.2544   55.3830 H       1  ZINC000279593480    0.3900
     38 H38        -7.1626    0.2916   53.4873 H       1  ZINC000279593480    0.3900
     39 H39        -7.7451   -0.4191   50.9707 H       1  ZINC000279593480    0.0800
     40 H40        -8.8258    0.9800   51.1775 H       1  ZINC000279593480    0.0800
     41 H41        -6.9411    2.2334   53.0818 H       1  ZINC000279593480    0.3700
     42 H42        -4.6973    1.0971   51.9306 H       1  ZINC000279593480    0.0900
     43 H43        -5.5660   -0.3754   51.3941 H       1  ZINC000279593480    0.0900
     44 H44        -3.7744    0.9989   49.7766 H       1  ZINC000279593480    0.1000
     45 H45        -5.1520    0.0575   49.1277 H       1  ZINC000279593480    0.0600
     46 H46        -7.4790    3.8692   48.8369 H       1  ZINC000279593480    0.0600
     47 H47        -8.4726    3.3866   50.2327 H       1  ZINC000279593480    0.0700
     48 H48        -6.8574    4.0887   50.4903 H       1  ZINC000279593480    0.0700
@<TRIPOS>BOND
     1     1     2    1
     2     1    26    1
     3     1    27    1
     4     1    28    1
     5     2     3    1
     6     2    29    1
     7     2    30    1
     8     3     4    1
     9     3     5    1
    10     3    13    1
    11     5     6    1
    12     5    31    1
    13     5    32    1
    14     6    12   ar
    15     6     7   ar
    16     7     8   ar
    17     7    33    1
    18     8     9   ar
    19     8    34    1
    20     9    10    1
    21     9    11   ar
    22    11    12   ar
    23    11    35    1
    24    12    36    1
    25    13    14   am
    26    13    37    1
    27    14    15    2
    28    14    16   am
    29    16    17    1
    30    16    38    1
    31    17    18    1
    32    17    39    1
    33    17    40    1
    34    18    23    1
    35    18    19    1
    36    18    20    1
    37    19    41    1
    38    20    21    1
    39    20    42    1
    40    20    43    1
    41    21    22    1
    42    21    44    1
    43    21    45    1
    44    22    23    1
    45    23    24    1
    46    23    25    1
    47    25    46    1
    48    25    47    1
    49    25    48    1
@<TRIPOS>SUBSTRUCTURE
     1 ZINC000279593480        1 TEMP              0 ****  ****    0 ROOT


##########                                Name:    ZINC000650955167
##########                DOCK_Rotatable_Bonds:                   9
##########                         Heavy_Atoms:                  26
##########                    Molecular_Weight:             361.484
##########                DOCK_Rotatable_Bonds:                   9
##########                       Formal_Charge:        -7.07805e-07
##########                     HBond_Acceptors:                   6
##########                        HBond_Donors:                   2
##########                         Heavy_Atoms:                  26
##########                          Grid_Score:          -28.682411
##########                     Grid_vdw_energy:          -28.786751
##########                      Grid_es_energy:            0.104340
##########           Internal_energy_repulsive:           15.722618

@<TRIPOS>MOLECULE
ZINC000650955167
 57 59 1 0 0
SMALL
USER_CHARGES


@<TRIPOS>ATOM
      1 C1         -6.3553   -0.1130   50.6459 C.3     1  ZINC000650955167    0.0200
      2 O2         -6.4867    0.8931   49.6395 O.3     1  ZINC000650955167   -0.3200
      3 C3         -5.5861    1.9106   49.6630 C.ar    1  ZINC000650955167    0.1300
      4 C4         -4.2314    1.6423   49.5332 C.ar    1  ZINC000650955167   -0.2000
      5 C5         -3.3178    2.6786   49.5569 C.ar    1  ZINC000650955167   -0.0800
      6 C6         -3.7529    3.9818   49.7103 C.ar    1  ZINC000650955167   -0.1500
      7 C7         -5.1028    4.2518   49.8405 C.ar    1  ZINC000650955167   -0.0800
      8 C8         -6.0207    3.2199   49.8112 C.ar    1  ZINC000650955167   -0.1100
      9 C9         -7.4917    3.5148   49.9525 C.3     1  ZINC000650955167   -0.0800
     10 C10        -7.7242    4.3610   51.2058 C.3     1  ZINC000650955167    0.1800
     11 H11        -6.8328    4.9522   51.4155 H       1  ZINC000650955167    0.0900
     12 N12        -8.0057    3.4816   52.3433 N.am    1  ZINC000650955167   -0.7300
     13 C13        -7.1060    3.3591   53.3392 C.2     1  ZINC000650955167    0.7400
     14 O14        -6.0613    3.9797   53.2945 O.2     1  ZINC000650955167   -0.5800
     15 N15        -7.3643    2.5489   54.3848 N.am    1  ZINC000650955167   -0.6700
     16 C16        -8.4632    1.6590   54.7888 C.3     1  ZINC000650955167    0.1100
     17 C17        -8.0473    1.8965   56.2471 C.3     1  ZINC000650955167    0.0300
     18 N18        -8.1021    0.6962   57.0922 N.3     1  ZINC000650955167   -0.5100
     19 C19        -9.4965    0.2404   57.2755 C.3     1  ZINC000650955167    0.0400
     20 C20        -9.5356   -0.3472   58.7082 C.3     1  ZINC000650955167   -0.1600
     21 C21        -8.5944    0.6223   59.4704 C.3     1  ZINC000650955167    0.0800
     22 H22        -9.1305    1.5220   59.7723 H       1  ZINC000650955167    0.0600
     23 O23        -8.0155   -0.0238   60.6059 O.3     1  ZINC000650955167   -0.5600
     24 C24        -7.5151    0.9571   58.4194 C.3     1  ZINC000650955167    0.0500
     25 C25        -6.6681    2.1606   55.6208 C.3     1  ZINC000650955167    0.1400
     26 C26        -8.9139    5.2954   50.9769 C.3     1  ZINC000650955167   -0.1100
     27 C27       -10.1918    4.4670   50.8293 C.3     1  ZINC000650955167   -0.1400
     28 C28        -9.0551    6.2428   52.1699 C.3     1  ZINC000650955167   -0.1500
     29 H29        -7.1344   -0.8637   50.5131 H       1  ZINC000650955167    0.1000
     30 H30        -5.3769   -0.5859   50.5613 H       1  ZINC000650955167    0.0600
     31 H31        -6.4545    0.3433   51.6309 H       1  ZINC000650955167    0.0600
     32 H32        -3.8909    0.6244   49.4140 H       1  ZINC000650955167    0.1300
     33 H33        -2.2629    2.4703   49.4559 H       1  ZINC000650955167    0.1200
     34 H34        -3.0372    4.7904   49.7289 H       1  ZINC000650955167    0.1200
     35 H35        -5.4402    5.2707   49.9605 H       1  ZINC000650955167    0.1300
     36 H36        -7.8385    4.0615   49.0756 H       1  ZINC000650955167    0.0900
     37 H37        -8.0433    2.5787   50.0386 H       1  ZINC000650955167    0.0800
     38 H38        -8.8397    2.9875   52.3795 H       1  ZINC000650955167    0.4000
     39 H39        -9.4510    2.0528   54.5494 H       1  ZINC000650955167    0.0700
     40 H40        -8.3294    0.6279   54.4617 H       1  ZINC000650955167    0.0900
     41 H41        -8.5106    2.7691   56.7076 H       1  ZINC000650955167    0.0900
     42 H42       -10.1848    1.0816   57.1914 H       1  ZINC000650955167    0.0500
     43 H43        -9.7440   -0.5281   56.5432 H       1  ZINC000650955167    0.0900
     44 H44       -10.5456   -0.3130   59.1169 H       1  ZINC000650955167    0.0800
     45 H45        -9.1441   -1.3644   58.7237 H       1  ZINC000650955167    0.0900
     46 H46        -7.5818   -0.8637   60.4018 H       1  ZINC000650955167    0.3800
     47 H47        -6.6416    0.3228   58.5697 H       1  ZINC000650955167    0.0900
     48 H48        -7.2322    2.0067   58.4998 H       1  ZINC000650955167    0.0700
     49 H49        -6.0596    1.2624   55.5164 H       1  ZINC000650955167    0.0900
     50 H50        -6.1288    2.9835   56.0898 H       1  ZINC000650955167    0.0800
     51 H51        -8.7504    5.8761   50.0691 H       1  ZINC000650955167    0.0700
     52 H52       -10.3554    3.8864   51.7372 H       1  ZINC000650955167    0.0600
     53 H53       -11.0394    5.1328   50.6664 H       1  ZINC000650955167    0.0400
     54 H54       -10.0912    3.7921   49.9795 H       1  ZINC000650955167    0.0500
     55 H55        -8.1447    6.8329   52.2751 H       1  ZINC000650955167    0.0600
     56 H56        -9.9027    6.9085   52.0069 H       1  ZINC000650955167    0.0600
     57 H57        -9.2185    5.6620   53.0778 H       1  ZINC000650955167    0.0600
@<TRIPOS>BOND
     1     1     2    1
     2     1    29    1
     3     1    30    1
     4     1    31    1
     5     2     3    1
     6     3     8   ar
     7     3     4   ar
     8     4     5   ar
     9     4    32    1
    10     5     6   ar
    11     5    33    1
    12     6     7   ar
    13     6    34    1
    14     7     8   ar
    15     7    35    1
    16     8     9    1
    17     9    10    1
    18     9    36    1
    19     9    37    1
    20    10    11    1
    21    10    12    1
    22    10    26    1
    23    12    13   am
    24    12    38    1
    25    13    14    2
    26    13    15   am
    27    15    25    1
    28    15    16    1
    29    16    17    1
    30    16    39    1
    31    16    40    1
    32    17    18    1
    33    17    25    1
    34    17    41    1
    35    18    24    1
    36    18    19    1
    37    19    20    1
    38    19    42    1
    39    19    43    1
    40    20    21    1
    41    20    44    1
    42    20    45    1
    43    21    22    1
    44    21    23    1
    45    21    24    1
    46    23    46    1
    47    24    47    1
    48    24    48    1
    49    25    49    1
    50    25    50    1
    51    26    27    1
    52    26    28    1
    53    26    51    1
    54    27    52    1
    55    27    53    1
    56    27    54    1
    57    28    55    1
    58    28    56    1
    59    28    57    1
@<TRIPOS>SUBSTRUCTURE
     1 ZINC000650955167        1 TEMP              0 ****  ****    0 ROOT


##########                                Name:    ZINC001456096501
##########                DOCK_Rotatable_Bonds:                   7
##########                         Heavy_Atoms:                  24
##########                    Molecular_Weight:             333.431
##########                DOCK_Rotatable_Bonds:                   7
##########                       Formal_Charge:          -0.0200003
##########                     HBond_Acceptors:                   6
##########                        HBond_Donors:                   0
##########                         Heavy_Atoms:                  24
##########                          Grid_Score:          -28.676058
##########                     Grid_vdw_energy:          -28.724537
##########                      Grid_es_energy:            0.048480
##########           Internal_energy_repulsive:          147.293198

@<TRIPOS>MOLECULE
ZINC001456096501
 51 52 1 0 0
SMALL
USER_CHARGES


@<TRIPOS>ATOM
      1 C1          2.2076    0.5615   50.4000 C.3     1  ZINC001456096501    0.0400
      2 O2          1.0041    1.2342   50.0246 O.3     1  ZINC001456096501   -0.2900
      3 C3          0.9289    2.5585   50.2981 C.ar    1  ZINC001456096501    0.3700
      4 N4          1.9193    3.1540   50.9403 N.ar    1  ZINC001456096501   -0.5400
      5 C5          1.8876    4.4413   51.2266 C.ar    1  ZINC001456096501    0.1600
      6 C6          0.8098    5.2290   50.8650 C.ar    1  ZINC001456096501   -0.2200
      7 C7         -0.2550    4.6576   50.1907 C.ar    1  ZINC001456096501   -0.0200
      8 C8         -0.1970    3.2914   49.8930 C.ar    1  ZINC001456096501   -0.2000
      9 C9         -1.3042    2.6314   49.1754 C.2     1  ZINC001456096501    0.5900
     10 O10        -1.0947    2.0726   48.1162 O.2     1  ZINC001456096501   -0.5100
     11 N11        -2.5481    2.6479   49.6942 N.am    1  ZINC001456096501   -0.6200
     12 C12        -2.9400    3.2840   50.9605 C.3     1  ZINC001456096501    0.1000
     13 C13        -4.4487    3.0249   51.1556 C.3     1  ZINC001456096501   -0.1200
     14 C14        -4.7040    1.7757   50.2716 C.3     1  ZINC001456096501   -0.1200
     15 H15        -4.4368    0.8611   50.8011 H       1  ZINC001456096501    0.0900
     16 C16        -6.1581    1.7268   49.7980 C.3     1  ZINC001456096501    0.1200
     17 N17        -7.0195    1.3122   50.9081 N.am    1  ZINC001456096501   -0.6200
     18 C18        -7.1949   -0.1113   51.2069 C.3     1  ZINC001456096501    0.0600
     19 C19        -7.6504    2.2402   51.6546 C.2     1  ZINC001456096501    0.5200
     20 O20        -7.5052    3.4185   51.4072 O.2     1  ZINC001456096501   -0.5300
     21 C21        -8.5364    1.8135   52.7964 C.3     1  ZINC001456096501   -0.0800
     22 C22        -8.8987    3.0344   53.6446 C.3     1  ZINC001456096501   -0.1300
     23 C23        -9.8142    1.1806   52.2417 C.3     1  ZINC001456096501   -0.1500
     24 C24        -7.7961    0.7924   53.6626 C.3     1  ZINC001456096501   -0.1700
     25 C25        -3.7422    2.0367   49.0828 C.3     1  ZINC001456096501    0.1200
     26 H26         3.0538    1.0156   49.8842 H       1  ZINC001456096501    0.0600
     27 H27         2.3507    0.6467   51.4773 H       1  ZINC001456096501    0.0600
     28 H28         2.1367   -0.4908   50.1250 H       1  ZINC001456096501    0.1000
     29 H29         2.7179    4.8880   51.7532 H       1  ZINC001456096501    0.1700
     30 H30         0.7991    6.2815   51.1072 H       1  ZINC001456096501    0.1500
     31 H31        -1.1079    5.2520   49.8981 H       1  ZINC001456096501    0.1500
     32 H32        -2.3787    2.8449   51.7852 H       1  ZINC001456096501    0.0700
     33 H33        -2.7514    4.3564   50.9106 H       1  ZINC001456096501    0.0700
     34 H34        -4.6710    2.8097   52.2008 H       1  ZINC001456096501    0.0900
     35 H35        -5.0345    3.8736   50.8025 H       1  ZINC001456096501    0.0800
     36 H36        -6.4610    2.7153   49.4526 H       1  ZINC001456096501    0.0800
     37 H37        -6.2500    1.0121   48.9802 H       1  ZINC001456096501    0.0900
     38 H38        -6.4663   -0.4175   51.9575 H       1  ZINC001456096501    0.0600
     39 H39        -8.2021   -0.2812   51.5876 H       1  ZINC001456096501    0.0900
     40 H40        -7.0469   -0.6943   50.2979 H       1  ZINC001456096501    0.0700
     41 H41        -9.4261    3.7618   53.0276 H       1  ZINC001456096501    0.0600
     42 H42        -9.5395    2.7258   54.4705 H       1  ZINC001456096501    0.0600
     43 H43        -7.9883    3.4852   54.0398 H       1  ZINC001456096501    0.0600
     44 H44        -9.5524    0.3942   51.5338 H       1  ZINC001456096501    0.0700
     45 H45       -10.3936    0.7543   53.0606 H       1  ZINC001456096501    0.0700
     46 H46       -10.4068    1.9426   51.7354 H       1  ZINC001456096501    0.0600
     47 H47        -6.8857    1.2433   54.0578 H       1  ZINC001456096501    0.0600
     48 H48        -8.4369    0.4839   54.4885 H       1  ZINC001456096501    0.0700
     49 H49        -7.5380   -0.0773   53.0583 H       1  ZINC001456096501    0.0800
     50 H50        -4.2001    2.7196   48.3672 H       1  ZINC001456096501    0.0800
     51 H51        -3.4768    1.0981   48.5963 H       1  ZINC001456096501    0.0700
@<TRIPOS>BOND
     1     1     2    1
     2     1    26    1
     3     1    27    1
     4     1    28    1
     5     2     3    1
     6     3     8   ar
     7     3     4   ar
     8     4     5   ar
     9     5     6   ar
    10     5    29    1
    11     6     7   ar
    12     6    30    1
    13     7     8   ar
    14     7    31    1
    15     8     9    1
    16     9    10    2
    17     9    11   am
    18    11    25    1
    19    11    12    1
    20    12    13    1
    21    12    32    1
    22    12    33    1
    23    13    14    1
    24    13    34    1
    25    13    35    1
    26    14    15    1
    27    14    16    1
    28    14    25    1
    29    16    17    1
    30    16    36    1
    31    16    37    1
    32    17    18    1
    33    17    19   am
    34    18    38    1
    35    18    39    1
    36    18    40    1
    37    19    20    2
    38    19    21    1
    39    21    22    1
    40    21    23    1
    41    21    24    1
    42    22    41    1
    43    22    42    1
    44    22    43    1
    45    23    44    1
    46    23    45    1
    47    23    46    1
    48    24    47    1
    49    24    48    1
    50    24    49    1
    51    25    50    1
    52    25    51    1
@<TRIPOS>SUBSTRUCTURE
     1 ZINC001456096501        1 TEMP              0 ****  ****    0 ROOT


##########                                Name:    ZINC000629379364
##########                DOCK_Rotatable_Bonds:                   5
##########                         Heavy_Atoms:                  23
##########                    Molecular_Weight:             386.261
##########                DOCK_Rotatable_Bonds:                   5
##########                       Formal_Charge:               -0.02
##########                     HBond_Acceptors:                   5
##########                        HBond_Donors:                   1
##########                         Heavy_Atoms:                  23
##########                          Grid_Score:          -28.665771
##########                     Grid_vdw_energy:          -27.656187
##########                      Grid_es_energy:           -1.009584
##########           Internal_energy_repulsive:           26.263926

@<TRIPOS>MOLECULE
ZINC000629379364
 44 46 1 0 0
SMALL
USER_CHARGES


@<TRIPOS>ATOM
      1 O1         -4.8800   -0.0353   49.5731 O.co2   1  ZINC000629379364   -0.6800
      2 C2         -5.9989    0.2696   49.9491 C.2     1  ZINC000629379364    0.5000
      3 O3         -6.8762   -0.5755   50.0006 O.co2   1  ZINC000629379364   -0.6900
      4 C4         -6.2960    1.6899   50.3563 C.3     1  ZINC000629379364   -0.1600
      5 H5         -7.3626    1.8906   50.2550 H       1  ZINC000629379364    0.0800
      6 C6         -5.4917    2.6670   49.4811 C.3     1  ZINC000629379364   -0.1300
      7 C7         -5.6597    4.1051   49.9622 C.3     1  ZINC000629379364   -0.0100
      8 N8         -5.3180    4.2489   51.3905 N.4     1  ZINC000629379364   -0.3700
      9 H9         -5.4404    5.2085   51.6774 H       1  ZINC000629379364    0.4200
     10 C10        -3.9265    3.8348   51.6150 C.3     1  ZINC000629379364   -0.0200
     11 C11        -3.0220    5.0687   51.6219 C.3     1  ZINC000629379364    0.0300
     12 O12        -1.7008    4.6886   52.0117 O.3     1  ZINC000629379364   -0.3200
     13 C13        -1.0215    3.8664   51.1693 C.ar    1  ZINC000629379364    0.1600
     14 C14        -1.5187    3.6077   49.9008 C.ar    1  ZINC000629379364   -0.2300
     15 C15        -0.8254    2.7702   49.0447 C.ar    1  ZINC000629379364    0.1500
     16 F16        -1.3088    2.5175   47.8087 F       1  ZINC000629379364   -0.1200
     17 C17         0.3639    2.1914   49.4545 C.ar    1  ZINC000629379364   -0.1600
     18 C18         0.8602    2.4487   50.7199 C.ar    1  ZINC000629379364   -0.0300
     19 Br19        2.4848    1.6568   51.2764 Br      1  ZINC000629379364   -0.0100
     20 C20         0.1732    3.2894   51.5754 C.ar    1  ZINC000629379364   -0.1300
     21 C21        -6.2180    3.3898   52.1427 C.3     1  ZINC000629379364   -0.0100
     22 H22        -7.2513    3.5974   51.8647 H       1  ZINC000629379364    0.1400
     23 C23        -6.0689    3.4182   53.6674 C.3     1  ZINC000629379364   -0.1300
     24 C24        -6.6869    2.0621   54.1039 C.3     1  ZINC000629379364   -0.1200
     25 C25        -6.5814    1.1197   52.8795 C.3     1  ZINC000629379364   -0.1100
     26 C26        -5.8587    1.9203   51.7927 C.3     1  ZINC000629379364   -0.0700
     27 H27        -4.7808    1.7924   51.8915 H       1  ZINC000629379364    0.1000
     28 H28        -4.4363    2.3976   49.5221 H       1  ZINC000629379364    0.0800
     29 H29        -5.8387    2.5923   48.4505 H       1  ZINC000629379364    0.1100
     30 H30        -5.0104    4.7543   49.3747 H       1  ZINC000629379364    0.1200
     31 H31        -6.6950    4.4111   49.8123 H       1  ZINC000629379364    0.1300
     32 H32        -3.8501    3.3228   52.5742 H       1  ZINC000629379364    0.1400
     33 H33        -3.6150    3.1604   50.8172 H       1  ZINC000629379364    0.1700
     34 H34        -2.9949    5.5050   50.6234 H       1  ZINC000629379364    0.1100
     35 H35        -3.4124    5.8015   52.3281 H       1  ZINC000629379364    0.0900
     36 H36        -2.4464    4.0593   49.5815 H       1  ZINC000629379364    0.1500
     37 H37         0.9045    1.5383   48.7855 H       1  ZINC000629379364    0.1500
     38 H38         0.5617    3.4899   52.5630 H       1  ZINC000629379364    0.1500
     39 H39        -5.0179    3.4718   53.9510 H       1  ZINC000629379364    0.0800
     40 H40        -6.6275    4.2513   54.0939 H       1  ZINC000629379364    0.0900
     41 H41        -6.1275    1.6490   54.9432 H       1  ZINC000629379364    0.0800
     42 H42        -7.7319    2.1993   54.3815 H       1  ZINC000629379364    0.0800
     43 H43        -6.0178    0.2239   53.1402 H       1  ZINC000629379364    0.0900
     44 H44        -7.5759    0.8507   52.5236 H       1  ZINC000629379364    0.0800
@<TRIPOS>BOND
     1     1     2   ar
     2     2     3   ar
     3     2     4    1
     4     4     5    1
     5     4    26    1
     6     4     6    1
     7     6     7    1
     8     6    28    1
     9     6    29    1
    10     7     8    1
    11     7    30    1
    12     7    31    1
    13     8     9    1
    14     8    10    1
    15     8    21    1
    16    10    11    1
    17    10    32    1
    18    10    33    1
    19    11    12    1
    20    11    34    1
    21    11    35    1
    22    12    13    1
    23    13    20   ar
    24    13    14   ar
    25    14    15   ar
    26    14    36    1
    27    15    16    1
    28    15    17   ar
    29    17    18   ar
    30    17    37    1
    31    18    19    1
    32    18    20   ar
    33    20    38    1
    34    21    22    1
    35    21    26    1
    36    21    23    1
    37    23    24    1
    38    23    39    1
    39    23    40    1
    40    24    25    1
    41    24    41    1
    42    24    42    1
    43    25    26    1
    44    25    43    1
    45    25    44    1
    46    26    27    1
@<TRIPOS>SUBSTRUCTURE
     1 ZINC000629379364        1 TEMP              0 ****  ****    0 ROOT


##########                                Name:    ZINC000618094467
##########                DOCK_Rotatable_Bonds:                   5
##########                         Heavy_Atoms:                  27
##########                    Molecular_Weight:             370.492
##########                DOCK_Rotatable_Bonds:                   5
##########                       Formal_Charge:                0.03
##########                     HBond_Acceptors:                   5
##########                        HBond_Donors:                   0
##########                         Heavy_Atoms:                  27
##########                          Grid_Score:          -28.628227
##########                     Grid_vdw_energy:          -28.185652
##########                      Grid_es_energy:           -0.442575
##########           Internal_energy_repulsive:           79.379349

@<TRIPOS>MOLECULE
ZINC000618094467
 57 59 1 0 0
SMALL
USER_CHARGES


@<TRIPOS>ATOM
      1 C1         -6.5030    4.2970   57.1738 C.3     1  ZINC000618094467   -0.1500
      2 C2         -7.4028    3.5533   56.1847 C.3     1  ZINC000618094467   -0.1000
      3 C3         -7.0300    2.0695   56.1722 C.3     1  ZINC000618094467   -0.1100
      4 H4         -5.9946    1.9577   55.8502 H       1  ZINC000618094467    0.1000
      5 C5         -7.1916    1.4912   57.5795 C.3     1  ZINC000618094467   -0.1500
      6 C6         -7.9349    1.3322   55.2192 C.2     1  ZINC000618094467    0.5200
      7 O7         -8.7708    0.5649   55.6476 O.2     1  ZINC000618094467   -0.5000
      8 N8         -7.8156    1.5254   53.8907 N.am    1  ZINC000618094467   -0.6100
      9 C9         -6.8152    2.4464   53.3408 C.3     1  ZINC000618094467    0.1400
     10 C10        -6.1276    1.8046   52.1620 C.ar    1  ZINC000618094467   -0.1000
     11 C11        -4.9884    2.4205   51.6627 C.ar    1  ZINC000618094467   -0.1100
     12 C12        -4.3212    1.8865   50.5792 C.ar    1  ZINC000618094467   -0.1200
     13 C13        -4.7922    0.7301   49.9863 C.ar    1  ZINC000618094467   -0.1100
     14 C14        -5.9220    0.1149   50.4843 C.ar    1  ZINC000618094467   -0.1200
     15 C15        -6.5924    0.6469   51.5788 C.ar    1  ZINC000618094467   -0.0600
     16 C16        -7.8022   -0.0939   52.0843 C.3     1  ZINC000618094467   -0.0800
     17 C17        -8.6799    0.8158   52.9331 C.3     1  ZINC000618094467    0.1200
     18 H18        -9.1869    1.5395   52.2948 H       1  ZINC000618094467    0.1000
     19 C19        -9.6984   -0.0084   53.6778 C.2     1  ZINC000618094467    0.5500
     20 O20        -9.5073   -1.1928   53.8554 O.2     1  ZINC000618094467   -0.5200
     21 N21       -10.8215    0.5707   54.1464 N.am    1  ZINC000618094467   -0.6100
     22 C22       -11.0642    2.0030   53.9310 C.3     1  ZINC000618094467    0.1200
     23 C23       -12.3936    2.1717   53.1844 C.3     1  ZINC000618094467   -0.1600
     24 H24       -12.6841    3.2223   53.1850 H       1  ZINC000618094467    0.1100
     25 C25       -12.2411    1.6802   51.7435 C.3     1  ZINC000618094467   -0.1400
     26 C26       -13.4481    1.3512   53.8943 C.2     1  ZINC000618094467    0.3700
     27 O27       -14.4903    1.8519   54.2429 O.2     1  ZINC000618094467   -0.4400
     28 C28       -13.1655   -0.1118   54.1563 C.3     1  ZINC000618094467   -0.1600
     29 H29       -13.1212   -0.6521   53.2108 H       1  ZINC000618094467    0.1100
     30 C30       -14.2711   -0.7007   55.0347 C.3     1  ZINC000618094467   -0.1400
     31 C31       -11.8196   -0.2244   54.8733 C.3     1  ZINC000618094467    0.1400
     32 H32        -5.4615    4.1865   56.8714 H       1  ZINC000618094467    0.0500
     33 H33        -6.7686    5.3541   57.1827 H       1  ZINC000618094467    0.0600
     34 H34        -6.6377    3.8800   58.1719 H       1  ZINC000618094467    0.0600
     35 H35        -8.4442    3.6637   56.4872 H       1  ZINC000618094467    0.0700
     36 H36        -7.2680    3.9702   55.1867 H       1  ZINC000618094467    0.0700
     37 H37        -8.1874    1.7247   57.9561 H       1  ZINC000618094467    0.0700
     38 H38        -7.0605    0.4096   57.5450 H       1  ZINC000618094467    0.0700
     39 H39        -6.4418    1.9271   58.2398 H       1  ZINC000618094467    0.0700
     40 H40        -7.3060    3.3648   53.0185 H       1  ZINC000618094467    0.0900
     41 H41        -6.0770    2.6805   54.1080 H       1  ZINC000618094467    0.1100
     42 H42        -4.6216    3.3249   52.1253 H       1  ZINC000618094467    0.1300
     43 H43        -3.4349    2.3701   50.1959 H       1  ZINC000618094467    0.1300
     44 H44        -4.2772    0.3095   49.1353 H       1  ZINC000618094467    0.1200
     45 H45        -6.2890   -0.7881   50.0190 H       1  ZINC000618094467    0.1200
     46 H46        -8.3789   -0.4603   51.2350 H       1  ZINC000618094467    0.0900
     47 H47        -7.4772   -0.9411   52.6883 H       1  ZINC000618094467    0.1000
     48 H48       -11.1179    2.5133   54.8926 H       1  ZINC000618094467    0.0700
     49 H49       -10.2547    2.4253   53.3356 H       1  ZINC000618094467    0.0900
     50 H50       -12.0443    0.6081   51.7441 H       1  ZINC000618094467    0.0600
     51 H51       -13.1599    1.8806   51.1922 H       1  ZINC000618094467    0.0600
     52 H52       -11.4108    2.2019   51.2676 H       1  ZINC000618094467    0.0700
     53 H53       -15.2301   -0.6033   54.5258 H       1  ZINC000618094467    0.0700
     54 H54       -14.0642   -1.7545   55.2214 H       1  ZINC000618094467    0.0700
     55 H55       -14.3067   -0.1640   55.9827 H       1  ZINC000618094467    0.0600
     56 H56       -11.5067   -1.2682   54.9010 H       1  ZINC000618094467    0.1100
     57 H57       -11.9137    0.1581   55.8895 H       1  ZINC000618094467    0.0700
@<TRIPOS>BOND
     1     1     2    1
     2     1    32    1
     3     1    33    1
     4     1    34    1
     5     2     3    1
     6     2    35    1
     7     2    36    1
     8     3     4    1
     9     3     5    1
    10     3     6    1
    11     5    37    1
    12     5    38    1
    13     5    39    1
    14     6     7    2
    15     6     8   am
    16     8    17    1
    17     8     9    1
    18     9    10    1
    19     9    40    1
    20     9    41    1
    21    10    15   ar
    22    10    11   ar
    23    11    12   ar
    24    11    42    1
    25    12    13   ar
    26    12    43    1
    27    13    14   ar
    28    13    44    1
    29    14    15   ar
    30    14    45    1
    31    15    16    1
    32    16    17    1
    33    16    46    1
    34    16    47    1
    35    17    18    1
    36    17    19    1
    37    19    20    2
    38    19    21   am
    39    21    31    1
    40    21    22    1
    41    22    23    1
    42    22    48    1
    43    22    49    1
    44    23    24    1
    45    23    25    1
    46    23    26    1
    47    25    50    1
    48    25    51    1
    49    25    52    1
    50    26    27    2
    51    26    28    1
    52    28    29    1
    53    28    30    1
    54    28    31    1
    55    30    53    1
    56    30    54    1
    57    30    55    1
    58    31    56    1
    59    31    57    1
@<TRIPOS>SUBSTRUCTURE
     1 ZINC000618094467        1 TEMP              0 ****  ****    0 ROOT


##########                                Name:    ZINC001217683559
##########                DOCK_Rotatable_Bonds:                   3
##########                         Heavy_Atoms:                  25
##########                    Molecular_Weight:             397.234
##########                DOCK_Rotatable_Bonds:                   3
##########                       Formal_Charge:          0.00999987
##########                     HBond_Acceptors:                   7
##########                        HBond_Donors:                   0
##########                         Heavy_Atoms:                  25
##########                          Grid_Score:          -28.606350
##########                     Grid_vdw_energy:          -28.163635
##########                      Grid_es_energy:           -0.442714
##########           Internal_energy_repulsive:            3.690303

@<TRIPOS>MOLECULE
ZINC001217683559
 38 42 1 0 0
SMALL
USER_CHARGES


@<TRIPOS>ATOM
      1 Br1         3.2413    0.2675   47.5803 Br      1  ZINC001217683559    0.0100
      2 C2          3.2108    1.1470   45.9065 C.ar    1  ZINC001217683559   -0.1200
      3 C3          3.9363    0.6476   44.8367 C.ar    1  ZINC001217683559   -0.0500
      4 C4          3.8843    1.3256   43.6279 C.ar    1  ZINC001217683559   -0.1500
      5 C5          3.1162    2.4715   43.5254 C.ar    1  ZINC001217683559    0.1200
      6 N6          2.4364    2.9248   44.5584 N.ar    1  ZINC001217683559   -0.4400
      7 C7          2.4538    2.3035   45.7296 C.ar    1  ZINC001217683559    0.2200
      8 C8          1.6714    2.8522   46.8660 C.2     1  ZINC001217683559    0.2100
      9 N9          2.0698    3.7688   47.7099 N.2     1  ZINC001217683559   -0.3300
     10 O10         1.2000    4.0006   48.5227 O.3     1  ZINC001217683559    0.1000
     11 C11         0.1264    3.2341   48.2743 C.2     1  ZINC001217683559    0.2300
     12 C12        -1.1390    3.2181   49.0366 C.2     1  ZINC001217683559   -0.0600
     13 C13        -2.1223    2.3270   48.7114 C.2     1  ZINC001217683559    0.1800
     14 N14        -3.2869    2.3056   49.4059 N.pl3   1  ZINC001217683559   -0.2900
     15 N15        -4.4475    1.5250   49.3046 N.2     1  ZINC001217683559   -0.3300
     16 C16        -5.2710    1.9357   50.2398 C.2     1  ZINC001217683559    0.2800
     17 C17        -6.6445    1.3710   50.4961 C.3     1  ZINC001217683559   -0.0300
     18 C18        -6.6805   -0.1658   50.5391 C.3     1  ZINC001217683559   -0.1200
     19 C19        -7.6646   -0.0316   51.7131 C.3     1  ZINC001217683559   -0.1400
     20 C20        -7.0312    1.3433   51.9842 C.3     1  ZINC001217683559   -0.1200
     21 N21        -4.7106    2.9222   50.9255 N.2     1  ZINC001217683559   -0.5300
     22 C22        -3.4997    3.1721   50.4417 C.2     1  ZINC001217683559    0.2900
     23 C23        -2.5022    4.1006   50.7979 C.2     1  ZINC001217683559   -0.1000
     24 C24        -1.3320    4.1216   50.1082 C.2     1  ZINC001217683559   -0.0200
     25 N25         0.4161    2.5013   47.2150 N.2     1  ZINC001217683559   -0.4300
     26 H26         4.5291   -0.2491   44.9420 H       1  ZINC001217683559    0.1600
     27 H27         4.4385    0.9626   42.7749 H       1  ZINC001217683559    0.1500
     28 H28         3.0736    3.0018   42.5855 H       1  ZINC001217683559    0.1800
     29 H29        -1.9713    1.6355   47.8958 H       1  ZINC001217683559    0.1900
     30 H30        -7.4088    1.8093   49.8545 H       1  ZINC001217683559    0.1200
     31 H31        -7.1207   -0.6172   49.6498 H       1  ZINC001217683559    0.0700
     32 H32        -5.7282   -0.6173   50.8170 H       1  ZINC001217683559    0.1000
     33 H33        -8.7085    0.0219   51.4040 H       1  ZINC001217683559    0.0800
     34 H34        -7.4948   -0.7554   52.5101 H       1  ZINC001217683559    0.0800
     35 H35        -6.1747    1.3043   52.6573 H       1  ZINC001217683559    0.0900
     36 H36        -7.7544    2.1102   52.2618 H       1  ZINC001217683559    0.0700
     37 H37        -2.6648    4.7878   51.6151 H       1  ZINC001217683559    0.1700
     38 H38        -0.5584    4.8281   50.3703 H       1  ZINC001217683559    0.1700
@<TRIPOS>BOND
     1     1     2    1
     2     2     7   ar
     3     2     3   ar
     4     3     4   ar
     5     3    26    1
     6     4     5   ar
     7     4    27    1
     8     5     6   ar
     9     5    28    1
    10     6     7   ar
    11     7     8    1
    12     8    25    1
    13     8     9    2
    14     9    10    1
    15    10    11    1
    16    11    12    1
    17    11    25    2
    18    12    24    1
    19    12    13    2
    20    13    14    1
    21    13    29    1
    22    14    22    1
    23    14    15    1
    24    15    16    2
    25    16    17    1
    26    16    21    1
    27    17    20    1
    28    17    18    1
    29    17    30    1
    30    18    19    1
    31    18    31    1
    32    18    32    1
    33    19    20    1
    34    19    33    1
    35    19    34    1
    36    20    35    1
    37    20    36    1
    38    21    22    2
    39    22    23    1
    40    23    24    2
    41    23    37    1
    42    24    38    1
@<TRIPOS>SUBSTRUCTURE
     1 ZINC001217683559        1 TEMP              0 ****  ****    0 ROOT


##########                                Name:    ZINC000435292384
##########                DOCK_Rotatable_Bonds:                   6
##########                         Heavy_Atoms:                  22
##########                    Molecular_Weight:             326.503
##########                DOCK_Rotatable_Bonds:                   6
##########                       Formal_Charge:         -0.00999993
##########                     HBond_Acceptors:                   5
##########                        HBond_Donors:                   0
##########                         Heavy_Atoms:                  22
##########                          Grid_Score:          -28.595087
##########                     Grid_vdw_energy:          -27.854502
##########                      Grid_es_energy:           -0.740585
##########           Internal_energy_repulsive:           24.654196

@<TRIPOS>MOLECULE
ZINC000435292384
 52 53 1 0 0
SMALL
USER_CHARGES


@<TRIPOS>ATOM
      1 C1          3.2609    0.9810   50.0752 C.3     1  ZINC000435292384   -0.1500
      2 C2          1.8819    1.3788   50.6053 C.3     1  ZINC000435292384   -0.1200
      3 C3          1.6629    2.8767   50.3836 C.3     1  ZINC000435292384   -0.1400
      4 C4          1.2883    3.1264   48.9212 C.3     1  ZINC000435292384    0.1600
      5 H5          1.9435    2.5436   48.2738 H       1  ZINC000435292384    0.0900
      6 C6          1.4469    4.6141   48.6011 C.3     1  ZINC000435292384   -0.1700
      7 N7         -0.1027    2.7244   48.6980 N.am    1  ZINC000435292384   -0.6100
      8 C8         -1.1899    2.9337   49.6614 C.3     1  ZINC000435292384    0.1200
      9 C9         -2.4952    2.7690   48.8517 C.3     1  ZINC000435292384   -0.1300
     10 H10        -2.8455    3.7305   48.4766 H       1  ZINC000435292384    0.1100
     11 C11        -3.5605    2.0949   49.6775 C.2     1  ZINC000435292384    0.5200
     12 O12        -3.9216    0.9707   49.4007 O.2     1  ZINC000435292384   -0.5200
     13 N13        -4.1121    2.7415   50.7235 N.am    1  ZINC000435292384   -0.6000
     14 C14        -3.6504    4.1088   51.0335 C.3     1  ZINC000435292384    0.1000
     15 C15        -4.8166    5.0476   51.3919 C.3     1  ZINC000435292384   -0.1300
     16 C16        -5.9917    4.7852   50.4826 C.3     1  ZINC000435292384   -0.1100
     17 C17        -6.9112    3.7540   51.1297 C.3     1  ZINC000435292384   -0.1200
     18 C18        -6.5240    2.3567   50.8818 C.3     1  ZINC000435292384   -0.0700
     19 H19        -6.4891    2.1773   49.8072 H       1  ZINC000435292384    0.0900
     20 S20        -7.7492    1.2514   51.6354 S.3     1  ZINC000435292384   -0.2500
     21 C21        -7.2073   -0.3913   51.0894 C.3     1  ZINC000435292384   -0.1200
     22 C22        -5.1358    2.0694   51.4921 C.3     1  ZINC000435292384    0.1400
     23 C23        -2.0337    1.8571   47.6914 C.3     1  ZINC000435292384   -0.1400
     24 C24        -0.5482    2.1217   47.5822 C.2     1  ZINC000435292384    0.5200
     25 O25         0.1418    1.8263   46.6295 O.2     1  ZINC000435292384   -0.5200
     26 H26         3.4170   -0.0861   50.2332 H       1  ZINC000435292384    0.0500
     27 H27         3.3184    1.2028   49.0096 H       1  ZINC000435292384    0.0500
     28 H28         4.0299    1.5430   50.6053 H       1  ZINC000435292384    0.0500
     29 H29         1.1129    0.8168   50.0753 H       1  ZINC000435292384    0.0600
     30 H30         1.8244    1.1570   51.6710 H       1  ZINC000435292384    0.0600
     31 H31         0.8574    3.2257   51.0296 H       1  ZINC000435292384    0.0800
     32 H32         2.5792    3.4170   50.6212 H       1  ZINC000435292384    0.0800
     33 H33         0.7918    5.1969   49.2486 H       1  ZINC000435292384    0.0700
     34 H34         2.4818    4.9132   48.7673 H       1  ZINC000435292384    0.0700
     35 H35         1.1800    4.7920   47.5594 H       1  ZINC000435292384    0.0600
     36 H36        -1.1407    2.1868   50.4537 H       1  ZINC000435292384    0.0900
     37 H37        -1.1319    3.9369   50.0835 H       1  ZINC000435292384    0.0800
     38 H38        -2.9587    4.0665   51.8748 H       1  ZINC000435292384    0.0700
     39 H39        -3.1264    4.5105   50.1663 H       1  ZINC000435292384    0.0900
     40 H40        -5.1144    4.8757   52.4263 H       1  ZINC000435292384    0.0700
     41 H41        -4.4953    6.0830   51.2776 H       1  ZINC000435292384    0.0800
     42 H42        -6.5415    5.7127   50.3219 H       1  ZINC000435292384    0.0700
     43 H43        -5.6336    4.4039   49.5264 H       1  ZINC000435292384    0.0600
     44 H44        -6.9197    3.9249   52.2062 H       1  ZINC000435292384    0.0800
     45 H45        -7.9220    3.9054   50.7508 H       1  ZINC000435292384    0.0600
     46 H46        -7.2183   -0.4342   50.0003 H       1  ZINC000435292384    0.0800
     47 H47        -6.1959   -0.5789   51.4502 H       1  ZINC000435292384    0.0800
     48 H48        -7.8820   -1.1482   51.4896 H       1  ZINC000435292384    0.1000
     49 H49        -4.9492    0.9956   51.4801 H       1  ZINC000435292384    0.0900
     50 H50        -5.1095    2.4305   52.5202 H       1  ZINC000435292384    0.0900
     51 H51        -2.2220    0.8105   47.9306 H       1  ZINC000435292384    0.1100
     52 H52        -2.5368    2.1343   46.7651 H       1  ZINC000435292384    0.1100
@<TRIPOS>BOND
     1     1     2    1
     2     1    26    1
     3     1    27    1
     4     1    28    1
     5     2     3    1
     6     2    29    1
     7     2    30    1
     8     3     4    1
     9     3    31    1
    10     3    32    1
    11     4     5    1
    12     4     6    1
    13     4     7    1
    14     6    33    1
    15     6    34    1
    16     6    35    1
    17     7    24   am
    18     7     8    1
    19     8     9    1
    20     8    36    1
    21     8    37    1
    22     9    10    1
    23     9    11    1
    24     9    23    1
    25    11    12    2
    26    11    13   am
    27    13    22    1
    28    13    14    1
    29    14    15    1
    30    14    38    1
    31    14    39    1
    32    15    16    1
    33    15    40    1
    34    15    41    1
    35    16    17    1
    36    16    42    1
    37    16    43    1
    38    17    18    1
    39    17    44    1
    40    17    45    1
    41    18    19    1
    42    18    20    1
    43    18    22    1
    44    20    21    1
    45    21    46    1
    46    21    47    1
    47    21    48    1
    48    22    49    1
    49    22    50    1
    50    23    24    1
    51    23    51    1
    52    23    52    1
    53    24    25    2
@<TRIPOS>SUBSTRUCTURE
     1 ZINC000435292384        1 TEMP              0 ****  ****    0 ROOT


##########                                Name:    ZINC000647468483
##########                DOCK_Rotatable_Bonds:                   5
##########                         Heavy_Atoms:                  24
##########                    Molecular_Weight:             341.373
##########                DOCK_Rotatable_Bonds:                   5
##########                       Formal_Charge:           0.0300004
##########                     HBond_Acceptors:                   6
##########                        HBond_Donors:                   2
##########                         Heavy_Atoms:                  24
##########                          Grid_Score:          -28.572151
##########                     Grid_vdw_energy:          -26.523216
##########                      Grid_es_energy:           -2.048936
##########           Internal_energy_repulsive:           19.365074

@<TRIPOS>MOLECULE
ZINC000647468483
 46 48 1 0 0
SMALL
USER_CHARGES


@<TRIPOS>ATOM
      1 O1         -6.6294   -0.8525   52.3423 O.co2   1  ZINC000647468483   -0.6800
      2 C2         -7.2541    0.1310   51.9833 C.2     1  ZINC000647468483    0.5000
      3 O3         -8.4033    0.2933   52.3568 O.co2   1  ZINC000647468483   -0.6900
      4 C4         -6.6036    1.1495   51.0827 C.3     1  ZINC000647468483   -0.1500
      5 H5         -7.3550    1.6879   50.5051 H       1  ZINC000647468483    0.0800
      6 C6         -5.5711    0.4743   50.1462 C.3     1  ZINC000647468483   -0.1100
      7 C7         -4.6021    1.6133   49.7677 C.3     1  ZINC000647468483   -0.1400
      8 C8         -4.7032    2.6661   50.8853 C.3     1  ZINC000647468483    0.0100
      9 H9         -5.0459    3.6156   50.4741 H       1  ZINC000647468483    0.1400
     10 N10        -3.3957    2.8408   51.5318 N.4     1  ZINC000647468483   -0.5000
     11 H11        -3.3330    2.2319   52.3339 H       1  ZINC000647468483    0.4200
     12 H12        -2.6633    2.6109   50.8769 H       1  ZINC000647468483    0.4300
     13 C13        -3.2458    4.2368   51.9638 C.3     1  ZINC000647468483    0.0200
     14 H14        -3.8573    4.8883   51.3397 H       1  ZINC000647468483    0.1500
     15 C15        -3.6599    4.3794   53.4389 C.3     1  ZINC000647468483   -0.1400
     16 C16        -2.4162    4.8844   54.1991 C.3     1  ZINC000647468483   -0.1300
     17 C17        -1.2245    4.4416   53.3142 C.3     1  ZINC000647468483   -0.1300
     18 C18        -1.7649    4.6604   51.8778 C.3     1  ZINC000647468483   -0.0600
     19 H19        -1.6835    5.7101   51.5955 H       1  ZINC000647468483    0.1300
     20 C20        -1.0206    3.7922   50.8963 C.ar    1  ZINC000647468483   -0.1200
     21 C21        -1.4687    3.6813   49.5936 C.ar    1  ZINC000647468483   -0.0700
     22 C22        -0.7859    2.8848   48.6931 C.ar    1  ZINC000647468483   -0.1000
     23 C23         0.3451    2.1998   49.0956 C.ar    1  ZINC000647468483   -0.0600
     24 C24         0.7938    2.3114   50.3986 C.ar    1  ZINC000647468483   -0.1600
     25 C25         2.0267    1.5641   50.8376 C.3     1  ZINC000647468483    0.5000
     26 F26         3.1246    1.9923   50.0838 F       1  ZINC000647468483   -0.1700
     27 F27         2.2656    1.8140   52.1932 F       1  ZINC000647468483   -0.1700
     28 F28         1.8341    0.1920   50.6432 F       1  ZINC000647468483   -0.1700
     29 C29         0.1136    3.1110   51.2976 C.ar    1  ZINC000647468483   -0.1100
     30 C30        -5.7342    2.1331   51.9046 C.3     1  ZINC000647468483   -0.1200
     31 H31        -5.0403   -0.3191   50.6725 H       1  ZINC000647468483    0.0800
     32 H32        -6.0631    0.0806   49.2568 H       1  ZINC000647468483    0.0800
     33 H33        -3.5831    1.2314   49.7054 H       1  ZINC000647468483    0.0700
     34 H34        -4.8957    2.0519   48.8139 H       1  ZINC000647468483    0.1000
     35 H35        -4.4720    5.1008   53.5307 H       1  ZINC000647468483    0.1000
     36 H36        -3.9722    3.4128   53.8342 H       1  ZINC000647468483    0.0900
     37 H37        -2.4401    5.9702   54.2912 H       1  ZINC000647468483    0.0800
     38 H38        -2.3548    4.4183   55.1825 H       1  ZINC000647468483    0.0900
     39 H39        -0.3525    5.0690   53.4984 H       1  ZINC000647468483    0.0900
     40 H40        -0.9881    3.3908   53.4822 H       1  ZINC000647468483    0.0800
     41 H41        -2.3524    4.2167   49.2791 H       1  ZINC000647468483    0.1400
     42 H42        -1.1364    2.7976   47.6754 H       1  ZINC000647468483    0.1500
     43 H43         0.8780    1.5769   48.3925 H       1  ZINC000647468483    0.1500
     44 H44         0.4641    3.1982   52.3154 H       1  ZINC000647468483    0.1400
     45 H45        -6.3404    2.9497   52.2966 H       1  ZINC000647468483    0.0900
     46 H46        -5.2315    1.6065   52.7159 H       1  ZINC000647468483    0.1000
@<TRIPOS>BOND
     1     1     2   ar
     2     2     3   ar
     3     2     4    1
     4     4     5    1
     5     4    30    1
     6     4     6    1
     7     6     7    1
     8     6    31    1
     9     6    32    1
    10     7     8    1
    11     7    33    1
    12     7    34    1
    13     8     9    1
    14     8    10    1
    15     8    30    1
    16    10    11    1
    17    10    12    1
    18    10    13    1
    19    13    14    1
    20    13    18    1
    21    13    15    1
    22    15    16    1
    23    15    35    1
    24    15    36    1
    25    16    17    1
    26    16    37    1
    27    16    38    1
    28    17    18    1
    29    17    39    1
    30    17    40    1
    31    18    19    1
    32    18    20    1
    33    20    29   ar
    34    20    21   ar
    35    21    22   ar
    36    21    41    1
    37    22    23   ar
    38    22    42    1
    39    23    24   ar
    40    23    43    1
    41    24    25    1
    42    24    29   ar
    43    25    26    1
    44    25    27    1
    45    25    28    1
    46    29    44    1
    47    30    45    1
    48    30    46    1
@<TRIPOS>SUBSTRUCTURE
     1 ZINC000647468483        1 TEMP              0 ****  ****    0 ROOT


##########                                Name:    ZINC000797321835
##########                DOCK_Rotatable_Bonds:                   4
##########                         Heavy_Atoms:                  22
##########                    Molecular_Weight:             381.253
##########                DOCK_Rotatable_Bonds:                   4
##########                       Formal_Charge:           0.0200001
##########                     HBond_Acceptors:                   7
##########                        HBond_Donors:                   1
##########                         Heavy_Atoms:                  22
##########                          Grid_Score:          -28.567171
##########                     Grid_vdw_energy:          -27.588921
##########                      Grid_es_energy:           -0.978250
##########           Internal_energy_repulsive:           11.381609

@<TRIPOS>MOLECULE
ZINC000797321835
 35 37 1 0 0
SMALL
USER_CHARGES


@<TRIPOS>ATOM
      1 C1          1.9788    1.8962   50.0136 C.3     1  ZINC000797321835    0.1000
      2 N2          1.6408    1.7947   48.5918 N.am    1  ZINC000797321835   -0.6000
      3 C3          2.3390    1.0763   47.6955 C.2     1  ZINC000797321835    0.5200
      4 O4          3.3344    0.4306   47.9469 O.2     1  ZINC000797321835   -0.5200
      5 C5          1.7023    1.1898   46.3280 C.3     1  ZINC000797321835   -0.1500
      6 C6          0.2864    1.7419   46.6137 C.3     1  ZINC000797321835   -0.1200
      7 C7          0.4927    2.4595   47.9640 C.3     1  ZINC000797321835    0.1200
      8 H8          0.7178    3.5133   47.8007 H       1  ZINC000797321835    0.1100
      9 C9         -0.7368    2.3167   48.8236 C.2     1  ZINC000797321835    0.4900
     10 O10        -0.6267    2.2091   50.0266 O.2     1  ZINC000797321835   -0.4400
     11 N11        -1.9590    2.3084   48.2554 N.am    1  ZINC000797321835   -0.6500
     12 C12        -3.0969    2.1763   49.0509 C.ar    1  ZINC000797321835    0.3000
     13 C13        -3.4382    3.1841   49.9537 C.ar    1  ZINC000797321835   -0.1400
     14 C14        -4.5752    3.0111   50.7219 C.ar    1  ZINC000797321835   -0.0800
     15 C15        -5.3138    1.8336   50.5454 C.ar    1  ZINC000797321835    0.1100
     16 C16        -6.5363    1.5993   51.3400 C.2     1  ZINC000797321835   -0.1400
     17 C17        -7.5580    2.4695   51.4716 C.2     1  ZINC000797321835   -0.0900
     18 C18        -8.5938    2.0267   52.2669 C.2     1  ZINC000797321835   -0.0900
     19 C19        -8.4273    0.8047   52.7851 C.2     1  ZINC000797321835   -0.2000
     20 Br20       -9.6642   -0.0772   53.9113 Br      1  ZINC000797321835    0.0200
     21 S21        -6.8883    0.1391   52.2551 S.3     1  ZINC000797321835    0.1900
     22 N22        -4.9101    0.9290   49.6599 N.ar    1  ZINC000797321835   -0.1900
     23 N23        -3.8568    1.0968   48.9459 N.ar    1  ZINC000797321835   -0.2200
     24 H24         1.4786    1.0992   50.5637 H       1  ZINC000797321835    0.0700
     25 H25         3.0576    1.8021   50.1382 H       1  ZINC000797321835    0.0800
     26 H26         1.6517    2.8628   50.3967 H       1  ZINC000797321835    0.0700
     27 H27         2.2634    1.8840   45.7024 H       1  ZINC000797321835    0.1100
     28 H28         1.6412    0.2106   45.8530 H       1  ZINC000797321835    0.1100
     29 H29        -0.0221    2.4440   45.8390 H       1  ZINC000797321835    0.1100
     30 H30        -0.4355    0.9314   46.7133 H       1  ZINC000797321835    0.0900
     31 H31        -2.0471    2.3945   47.2933 H       1  ZINC000797321835    0.4200
     32 H32        -2.8323    4.0728   50.0499 H       1  ZINC000797321835    0.1600
     33 H33        -4.8840    3.7603   51.4358 H       1  ZINC000797321835    0.1500
     34 H34        -7.5644    3.4372   50.9920 H       1  ZINC000797321835    0.1600
     35 H35        -9.4741    2.6225   52.4576 H       1  ZINC000797321835    0.1600
@<TRIPOS>BOND
     1     1     2    1
     2     1    24    1
     3     1    25    1
     4     1    26    1
     5     2     7    1
     6     2     3   am
     7     3     4    2
     8     3     5    1
     9     5     6    1
    10     5    27    1
    11     5    28    1
    12     6     7    1
    13     6    29    1
    14     6    30    1
    15     7     8    1
    16     7     9    1
    17     9    10    2
    18     9    11   am
    19    11    12    1
    20    11    31    1
    21    12    23   ar
    22    12    13   ar
    23    13    14   ar
    24    13    32    1
    25    14    15   ar
    26    14    33    1
    27    15    16    1
    28    15    22   ar
    29    16    21    1
    30    16    17    2
    31    17    18    1
    32    17    34    1
    33    18    19    2
    34    18    35    1
    35    19    20    1
    36    19    21    1
    37    22    23   ar
@<TRIPOS>SUBSTRUCTURE
     1 ZINC000797321835        1 TEMP              0 ****  ****    0 ROOT


##########                                Name:    ZINC000915315870
##########                DOCK_Rotatable_Bonds:                   4
##########                         Heavy_Atoms:                  24
##########                    Molecular_Weight:             357.381
##########                DOCK_Rotatable_Bonds:                   4
##########                       Formal_Charge:           0.0300002
##########                     HBond_Acceptors:                   9
##########                        HBond_Donors:                   1
##########                         Heavy_Atoms:                  24
##########                          Grid_Score:          -28.557898
##########                     Grid_vdw_energy:          -28.149204
##########                      Grid_es_energy:           -0.408692
##########           Internal_energy_repulsive:           35.787266

@<TRIPOS>MOLECULE
ZINC000915315870
 41 43 1 0 0
SMALL
USER_CHARGES


@<TRIPOS>ATOM
      1 C1         -7.8867    3.2043   56.6417 C.3     1  ZINC000915315870    0.0300
      2 O2         -8.1279    3.9065   55.4207 O.3     1  ZINC000915315870   -0.3200
      3 C3         -7.7080    3.3106   54.2725 C.ar    1  ZINC000915315870    0.0800
      4 C4         -7.9057    3.9386   53.0501 C.ar    1  ZINC000915315870    0.0900
      5 F5         -8.5152    5.1432   52.9996 F       1  ZINC000915315870   -0.1100
      6 C6         -7.4773    3.3297   51.8838 C.ar    1  ZINC000915315870   -0.0500
      7 C7         -6.8535    2.0970   51.9346 C.ar    1  ZINC000915315870   -0.6300
      8 S8         -6.3100    1.3246   50.4471 S.o2    1  ZINC000915315870    2.7000
      9 O9         -6.6487   -0.0507   50.5621 O.2     1  ZINC000915315870   -0.9400
     10 O10        -6.7585    2.1489   49.3800 O.2     1  ZINC000915315870   -0.9400
     11 N11        -4.6558    1.3992   50.4322 N.am    1  ZINC000915315870   -1.1100
     12 C12        -3.9808    2.6990   50.4648 C.3     1  ZINC000915315870    0.2400
     13 H13        -4.6705    3.4796   50.1441 H       1  ZINC000915315870    0.0900
     14 C14        -3.4925    2.9930   51.8889 C.3     1  ZINC000915315870   -0.1400
     15 C15        -2.5823    4.2231   51.8789 C.3     1  ZINC000915315870   -0.1100
     16 C16        -1.2421    3.8709   51.2215 C.3     1  ZINC000915315870   -0.0400
     17 C17        -1.5270    3.2046   49.8974 C.2     1  ZINC000915315870    0.0900
     18 N18        -0.7145    3.0150   48.8988 N.2     1  ZINC000915315870   -0.2900
     19 N19        -1.4207    2.3574   47.8801 N.pl3   1  ZINC000915315870   -0.3800
     20 C20        -0.8802    1.9540   46.5796 C.3     1  ZINC000915315870    0.1000
     21 C21        -2.6874    2.1610   48.3100 C.2     1  ZINC000915315870    0.0800
     22 C22        -2.7809    2.6726   49.5504 C.2     1  ZINC000915315870   -0.2500
     23 C23        -6.6547    1.4692   53.1502 C.ar    1  ZINC000915315870   -0.0500
     24 C24        -7.0756    2.0755   54.3208 C.ar    1  ZINC000915315870    0.1000
     25 F25        -6.8810    1.4615   55.5083 F       1  ZINC000915315870   -0.1100
     26 H26        -8.2700    3.7884   57.4784 H       1  ZINC000915315870    0.1100
     27 H27        -8.3916    2.2388   56.6113 H       1  ZINC000915315870    0.0600
     28 H28        -6.8150    3.0503   56.7667 H       1  ZINC000915315870    0.0500
     29 H29        -7.6309    3.8177   50.9326 H       1  ZINC000915315870    0.1700
     30 H30        -4.1337    0.5822   50.4019 H       1  ZINC000915315870    0.4200
     31 H31        -4.3502    3.1817   52.5346 H       1  ZINC000915315870    0.0900
     32 H32        -2.9374    2.1342   52.2664 H       1  ZINC000915315870    0.0800
     33 H33        -3.0621    5.0245   51.3171 H       1  ZINC000915315870    0.0700
     34 H34        -2.4080    4.5534   52.9029 H       1  ZINC000915315870    0.0800
     35 H35        -0.6623    4.7794   51.0589 H       1  ZINC000915315870    0.0800
     36 H36        -0.6854    3.1888   51.8642 H       1  ZINC000915315870    0.0900
     37 H37        -0.4714    0.9463   46.6529 H       1  ZINC000915315870    0.0800
     38 H38        -1.6758    1.9701   45.8348 H       1  ZINC000915315870    0.0900
     39 H39        -0.0913    2.6455   46.2837 H       1  ZINC000915315870    0.0900
     40 H40        -3.4811    1.6803   47.7572 H       1  ZINC000915315870    0.1700
     41 H41        -6.1667    0.5064   53.1868 H       1  ZINC000915315870    0.1700
@<TRIPOS>BOND
     1     1     2    1
     2     1    26    1
     3     1    27    1
     4     1    28    1
     5     2     3    1
     6     3    24   ar
     7     3     4   ar
     8     4     5    1
     9     4     6   ar
    10     6     7   ar
    11     6    29    1
    12     7     8    1
    13     7    23   ar
    14     8     9    2
    15     8    10    2
    16     8    11   am
    17    11    12    1
    18    11    30    1
    19    12    13    1
    20    12    22    1
    21    12    14    1
    22    14    15    1
    23    14    31    1
    24    14    32    1
    25    15    16    1
    26    15    33    1
    27    15    34    1
    28    16    17    1
    29    16    35    1
    30    16    36    1
    31    17    22    1
    32    17    18    2
    33    18    19    1
    34    19    20    1
    35    19    21    1
    36    20    37    1
    37    20    38    1
    38    20    39    1
    39    21    22    2
    40    21    40    1
    41    23    24   ar
    42    23    41    1
    43    24    25    1
@<TRIPOS>SUBSTRUCTURE
     1 ZINC000915315870        1 TEMP              0 ****  ****    0 ROOT


##########                                Name:    ZINC000463474628
##########                DOCK_Rotatable_Bonds:                   5
##########                         Heavy_Atoms:                  25
##########                    Molecular_Weight:              407.35
##########                DOCK_Rotatable_Bonds:                   5
##########                       Formal_Charge:           0.0200004
##########                     HBond_Acceptors:                   4
##########                        HBond_Donors:                   0
##########                         Heavy_Atoms:                  25
##########                          Grid_Score:          -28.546524
##########                     Grid_vdw_energy:          -28.151966
##########                      Grid_es_energy:           -0.394557
##########           Internal_energy_repulsive:           66.053413

@<TRIPOS>MOLECULE
ZINC000463474628
 52 54 1 0 0
SMALL
USER_CHARGES


@<TRIPOS>ATOM
      1 C1        -11.2192    4.2018   55.3175 C.3     1  ZINC000463474628   -0.1400
      2 C2        -10.1359    3.9356   54.2703 C.3     1  ZINC000463474628   -0.1300
      3 C3         -9.5683    2.5289   54.4699 C.3     1  ZINC000463474628    0.1400
      4 H4        -10.3558    1.7883   54.3301 H       1  ZINC000463474628    0.0800
      5 C5         -8.9721    2.3998   55.8874 C.3     1  ZINC000463474628   -0.1300
      6 C6         -7.7034    1.5377   55.6536 C.3     1  ZINC000463474628   -0.1300
      7 C7         -7.2338    2.0450   54.2673 C.3     1  ZINC000463474628    0.0900
      8 N8         -8.4797    2.2883   53.5114 N.am    1  ZINC000463474628   -0.6100
      9 C9         -8.5961    2.2907   52.1687 C.2     1  ZINC000463474628    0.5300
     10 O10        -9.6735    2.5032   51.6538 O.2     1  ZINC000463474628   -0.5100
     11 C11        -7.3876    2.0293   51.3072 C.3     1  ZINC000463474628   -0.1200
     12 H12        -7.6218    2.2683   50.2698 H       1  ZINC000463474628    0.1000
     13 C13        -6.9928    0.5546   51.4149 C.3     1  ZINC000463474628   -0.1000
     14 C14        -5.7857    0.2808   50.5150 C.3     1  ZINC000463474628   -0.1300
     15 C15        -4.6018    1.1336   50.9820 C.3     1  ZINC000463474628    0.0900
     16 N16        -5.0192    2.5418   51.0199 N.am    1  ZINC000463474628   -0.6000
     17 C17        -4.3123    3.4854   50.3668 C.2     1  ZINC000463474628    0.5700
     18 O18        -4.6682    4.6471   50.4058 O.2     1  ZINC000463474628   -0.5200
     19 C19        -3.1047    3.1077   49.6032 C.ar    1  ZINC000463474628   -0.1200
     20 C20        -3.2264    2.5632   48.3237 C.ar    1  ZINC000463474628   -0.0800
     21 C21        -2.0957    2.2126   47.6160 C.ar    1  ZINC000463474628   -0.1000
     22 C22        -0.8416    2.3996   48.1723 C.ar    1  ZINC000463474628   -0.0700
     23 Br23        0.7035    1.9168   47.1950 Br      1  ZINC000463474628   -0.0400
     24 C24        -0.7144    2.9393   49.4414 C.ar    1  ZINC000463474628   -0.0900
     25 C25        -1.8371    3.2991   50.1565 C.ar    1  ZINC000463474628   -0.0300
     26 C26        -1.6968    3.8861   51.5373 C.3     1  ZINC000463474628   -0.1300
     27 C27        -6.2222    2.9025   51.7826 C.3     1  ZINC000463474628    0.1200
     28 H28       -12.1645    3.7786   54.9780 H       1  ZINC000463474628    0.0700
     29 H29       -10.9327    3.7395   56.2621 H       1  ZINC000463474628    0.0600
     30 H30       -11.3320    5.2767   55.4584 H       1  ZINC000463474628    0.0300
     31 H31       -10.5678    4.0150   53.2726 H       1  ZINC000463474628    0.0600
     32 H32        -9.3368    4.6687   54.3798 H       1  ZINC000463474628    0.0700
     33 H33        -8.7050    3.3792   56.2841 H       1  ZINC000463474628    0.0800
     34 H34        -9.6678    1.8894   56.5534 H       1  ZINC000463474628    0.0800
     35 H35        -6.9509    1.7347   56.4172 H       1  ZINC000463474628    0.0900
     36 H36        -7.9528    0.4773   55.6176 H       1  ZINC000463474628    0.0800
     37 H37        -6.6667    2.9697   54.3739 H       1  ZINC000463474628    0.0700
     38 H38        -6.6318    1.2850   53.7692 H       1  ZINC000463474628    0.0800
     39 H39        -6.7356    0.3221   52.4482 H       1  ZINC000463474628    0.0800
     40 H40        -7.8293   -0.0693   51.1000 H       1  ZINC000463474628    0.0700
     41 H41        -5.5195   -0.7745   50.5742 H       1  ZINC000463474628    0.0800
     42 H42        -6.0343    0.5365   49.4850 H       1  ZINC000463474628    0.0700
     43 H43        -4.2938    0.8169   51.9784 H       1  ZINC000463474628    0.0800
     44 H44        -3.7708    1.0175   50.2862 H       1  ZINC000463474628    0.1000
     45 H45        -4.2041    2.4165   47.8888 H       1  ZINC000463474628    0.1400
     46 H46        -2.1886    1.7910   46.6260 H       1  ZINC000463474628    0.1400
     47 H47         0.2665    3.0824   49.8702 H       1  ZINC000463474628    0.1400
     48 H48        -1.7136    4.9741   51.4731 H       1  ZINC000463474628    0.0700
     49 H49        -2.5226    3.5462   52.1622 H       1  ZINC000463474628    0.0900
     50 H50        -0.7525    3.5626   51.9755 H       1  ZINC000463474628    0.0700
     51 H51        -6.4597    3.9530   51.6153 H       1  ZINC000463474628    0.1000
     52 H52        -6.0468    2.7300   52.8446 H       1  ZINC000463474628    0.0800
@<TRIPOS>BOND
     1     1     2    1
     2     1    28    1
     3     1    29    1
     4     1    30    1
     5     2     3    1
     6     2    31    1
     7     2    32    1
     8     3     4    1
     9     3     8    1
    10     3     5    1
    11     5     6    1
    12     5    33    1
    13     5    34    1
    14     6     7    1
    15     6    35    1
    16     6    36    1
    17     7     8    1
    18     7    37    1
    19     7    38    1
    20     8     9   am
    21     9    10    2
    22     9    11    1
    23    11    12    1
    24    11    27    1
    25    11    13    1
    26    13    14    1
    27    13    39    1
    28    13    40    1
    29    14    15    1
    30    14    41    1
    31    14    42    1
    32    15    16    1
    33    15    43    1
    34    15    44    1
    35    16    17   am
    36    16    27    1
    37    17    18    2
    38    17    19    1
    39    19    25   ar
    40    19    20   ar
    41    20    21   ar
    42    20    45    1
    43    21    22   ar
    44    21    46    1
    45    22    23    1
    46    22    24   ar
    47    24    25   ar
    48    24    47    1
    49    25    26    1
    50    26    48    1
    51    26    49    1
    52    26    50    1
    53    27    51    1
    54    27    52    1
@<TRIPOS>SUBSTRUCTURE
     1 ZINC000463474628        1 TEMP              0 ****  ****    0 ROOT


##########                                Name:    ZINC000098105561
##########                DOCK_Rotatable_Bonds:                   5
##########                         Heavy_Atoms:                  25
##########                    Molecular_Weight:             368.336
##########                DOCK_Rotatable_Bonds:                   5
##########                       Formal_Charge:         2.98023e-08
##########                     HBond_Acceptors:                   9
##########                        HBond_Donors:                   0
##########                         Heavy_Atoms:                  25
##########                          Grid_Score:          -28.545469
##########                     Grid_vdw_energy:          -28.259140
##########                      Grid_es_energy:           -0.286330
##########           Internal_energy_repulsive:           16.372272

@<TRIPOS>MOLECULE
ZINC000098105561
 36 38 1 0 0
SMALL
USER_CHARGES


@<TRIPOS>ATOM
      1 C1          0.5928    2.1049   47.0039 C.3     1  ZINC000098105561   -0.0800
      2 C2         -0.0443    2.6172   48.2699 C.2     1  ZINC000098105561    0.0900
      3 C3          0.6149    3.3651   49.1578 C.2     1  ZINC000098105561   -0.2700
      4 S4         -0.4885    3.7455   50.4775 S.3     1  ZINC000098105561    0.1600
      5 C5         -1.7317    2.8605   49.7069 C.2     1  ZINC000098105561    0.2500
      6 N6         -3.0175    2.6985   50.2037 N.am    1  ZINC000098105561   -0.5200
      7 C7         -3.2469    2.6803   51.6504 C.3     1  ZINC000098105561    0.0500
      8 C8         -3.7643    4.0475   52.1020 C.3     1  ZINC000098105561    0.4400
      9 F9         -5.1366    3.9646   52.3613 F       1  ZINC000098105561   -0.1700
     10 F10        -3.0928    4.4394   53.2651 F       1  ZINC000098105561   -0.1700
     11 F11        -3.5365    4.9890   51.0925 F       1  ZINC000098105561   -0.1700
     12 C12        -4.0552    2.5578   49.3550 C.2     1  ZINC000098105561    0.5800
     13 O13        -3.8648    2.5728   48.1549 O.2     1  ZINC000098105561   -0.4100
     14 C14        -5.4273    2.3850   49.8851 C.2     1  ZINC000098105561    0.0800
     15 C15        -6.3012    3.4156   49.7732 C.2     1  ZINC000098105561   -0.2000
     16 C16        -7.6582    3.2404   50.3180 C.2     1  ZINC000098105561    0.4200
     17 O17        -8.5612    4.0180   50.0641 O.2     1  ZINC000098105561   -0.4300
     18 C18        -7.8592    2.0657   51.1903 C.ar    1  ZINC000098105561   -0.2200
     19 C19        -9.0069    1.9235   51.9672 C.ar    1  ZINC000098105561   -0.0300
     20 C20        -9.1488    0.8133   52.7710 C.ar    1  ZINC000098105561   -0.1400
     21 C21        -8.1554   -0.1550   52.8065 C.ar    1  ZINC000098105561   -0.0500
     22 C22        -7.0168   -0.0264   52.0408 C.ar    1  ZINC000098105561   -0.1400
     23 C23        -6.8532    1.0838   51.2190 C.ar    1  ZINC000098105561    0.1400
     24 O24        -5.7542    1.2146   50.4499 O.3     1  ZINC000098105561   -0.2300
     25 N25        -1.3002    2.3673   48.5879 N.2     1  ZINC000098105561   -0.4600
     26 H26         0.4516    2.8335   46.2056 H       1  ZINC000098105561    0.0800
     27 H27         1.6588    1.9503   47.1704 H       1  ZINC000098105561    0.0800
     28 H28         0.1286    1.1604   46.7200 H       1  ZINC000098105561    0.0800
     29 H29         1.6446    3.6814   49.0807 H       1  ZINC000098105561    0.1900
     30 H30        -3.9846    1.9150   51.8918 H       1  ZINC000098105561    0.1700
     31 H31        -2.3115    2.4581   52.1639 H       1  ZINC000098105561    0.1400
     32 H32        -6.0099    4.3405   49.2977 H       1  ZINC000098105561    0.1800
     33 H33        -9.7793    2.6778   51.9401 H       1  ZINC000098105561    0.1400
     34 H34       -10.0361    0.6964   53.3756 H       1  ZINC000098105561    0.1400
     35 H35        -8.2758   -1.0196   53.4423 H       1  ZINC000098105561    0.1400
     36 H36        -6.2517   -0.7878   52.0785 H       1  ZINC000098105561    0.1400
@<TRIPOS>BOND
     1     1     2    1
     2     1    26    1
     3     1    27    1
     4     1    28    1
     5     2    25    1
     6     2     3    2
     7     3     4    1
     8     3    29    1
     9     4     5    1
    10     5     6    1
    11     5    25    2
    12     6     7    1
    13     6    12   am
    14     7     8    1
    15     7    30    1
    16     7    31    1
    17     8     9    1
    18     8    10    1
    19     8    11    1
    20    12    13    2
    21    12    14    1
    22    14    24    1
    23    14    15    2
    24    15    16    1
    25    15    32    1
    26    16    17    2
    27    16    18    1
    28    18    23   ar
    29    18    19   ar
    30    19    20   ar
    31    19    33    1
    32    20    21   ar
    33    20    34    1
    34    21    22   ar
    35    21    35    1
    36    22    23   ar
    37    22    36    1
    38    23    24    1
@<TRIPOS>SUBSTRUCTURE
     1 ZINC000098105561        1 TEMP              0 ****  ****    0 ROOT


##########                                Name:    ZINC000076573199
##########                DOCK_Rotatable_Bonds:                  10
##########                         Heavy_Atoms:                  24
##########                    Molecular_Weight:             333.431
##########                DOCK_Rotatable_Bonds:                  10
##########                       Formal_Charge:          -0.0200009
##########                     HBond_Acceptors:                   6
##########                        HBond_Donors:                   3
##########                         Heavy_Atoms:                  24
##########                          Grid_Score:          -28.535780
##########                     Grid_vdw_energy:          -27.529795
##########                      Grid_es_energy:           -1.005986
##########           Internal_energy_repulsive:           11.893399

@<TRIPOS>MOLECULE
ZINC000076573199
 51 51 1 0 0
SMALL
USER_CHARGES


@<TRIPOS>ATOM
      1 C1        -10.7971    1.1699   54.4354 C.3     1  ZINC000076573199   -0.1500
      2 C2         -9.7920    0.0893   54.0313 C.3     1  ZINC000076573199   -0.1200
      3 C3         -8.8424    0.6474   52.9694 C.3     1  ZINC000076573199   -0.1000
      4 H4         -9.3712    1.3776   52.3569 H       1  ZINC000076573199    0.0700
      5 C5         -8.3409   -0.4942   52.0830 C.3     1  ZINC000076573199   -0.1500
      6 C6         -7.6521    1.3223   53.6539 C.3     1  ZINC000076573199   -0.1200
      7 C7         -7.1799    2.5053   52.8063 C.3     1  ZINC000076573199    0.1400
      8 H8         -7.9646    2.7849   52.1034 H       1  ZINC000076573199    0.1000
      9 C9         -6.8654    3.6929   53.7183 C.3     1  ZINC000076573199   -0.1700
     10 N10        -5.9741    2.1252   52.0662 N.am    1  ZINC000076573199   -0.6900
     11 C11        -5.8269    2.4996   50.7797 C.2     1  ZINC000076573199    0.5100
     12 O12        -6.6940    3.1503   50.2341 O.2     1  ZINC000076573199   -0.5100
     13 C13        -4.5968    2.1137   50.0257 C.2     1  ZINC000076573199    0.5100
     14 O14        -4.4394    0.9642   49.6688 O.2     1  ZINC000076573199   -0.5000
     15 N15        -3.6616    3.0416   49.7417 N.am    1  ZINC000076573199   -0.6400
     16 C16        -2.5109    2.6806   49.0363 C.ar    1  ZINC000076573199    0.1500
     17 C17        -2.6047    2.2863   47.7071 C.ar    1  ZINC000076573199   -0.1300
     18 C18        -1.4669    1.9296   47.0090 C.ar    1  ZINC000076573199   -0.0800
     19 C19        -0.2330    1.9636   47.6293 C.ar    1  ZINC000076573199   -0.1200
     20 C20         1.0052    1.5741   46.8638 C.3     1  ZINC000076573199   -0.1100
     21 C21        -0.1323    2.3569   48.9583 C.ar    1  ZINC000076573199    0.1600
     22 N22         1.1180    2.3910   49.5856 N.am    1  ZINC000076573199   -0.6700
     23 C23         1.8233    3.5389   49.6207 C.2     1  ZINC000076573199    0.5100
     24 C24         3.1698    3.5757   50.2963 C.3     1  ZINC000076573199   -0.1700
     25 O25         1.3743    4.5424   49.1085 O.2     1  ZINC000076573199   -0.5200
     26 C26        -1.2716    2.7208   49.6607 C.ar    1  ZINC000076573199   -0.1400
     27 H27       -11.3704    1.4779   53.5609 H       1  ZINC000076573199    0.0600
     28 H28       -11.4735    0.7723   55.1918 H       1  ZINC000076573199    0.0500
     29 H29       -10.2632    2.0293   54.8409 H       1  ZINC000076573199    0.0500
     30 H30        -9.2187   -0.2187   54.9057 H       1  ZINC000076573199    0.0600
     31 H31       -10.3259   -0.7700   53.6258 H       1  ZINC000076573199    0.0600
     32 H32        -7.7417   -1.1816   52.6802 H       1  ZINC000076573199    0.0600
     33 H33        -9.1927   -1.0276   51.6608 H       1  ZINC000076573199    0.0600
     34 H34        -7.7310   -0.0872   51.2766 H       1  ZINC000076573199    0.0500
     35 H35        -7.9535    1.6786   54.6389 H       1  ZINC000076573199    0.0800
     36 H36        -6.8391    0.6041   53.7604 H       1  ZINC000076573199    0.0700
     37 H37        -6.5290    4.5357   53.1144 H       1  ZINC000076573199    0.0600
     38 H38        -7.7625    3.9757   54.2690 H       1  ZINC000076573199    0.0700
     39 H39        -6.0806    3.4133   54.4213 H       1  ZINC000076573199    0.0600
     40 H40        -5.2815    1.6042   52.5019 H       1  ZINC000076573199    0.4100
     41 H41        -3.7875    3.9602   50.0269 H       1  ZINC000076573199    0.4200
     42 H42        -3.5679    2.2583   47.2194 H       1  ZINC000076573199    0.1400
     43 H43        -1.5424    1.6232   45.9762 H       1  ZINC000076573199    0.1300
     44 H44         1.4266    2.4561   46.3815 H       1  ZINC000076573199    0.0700
     45 H45         1.7383    1.1502   47.5500 H       1  ZINC000076573199    0.0600
     46 H46         0.7463    0.8344   46.1062 H       1  ZINC000076573199    0.0700
     47 H47         1.4772    1.5884   49.9953 H       1  ZINC000076573199    0.4100
     48 H48         3.8409    2.8692   49.8077 H       1  ZINC000076573199    0.0900
     49 H49         3.5854    4.5808   50.2240 H       1  ZINC000076573199    0.1000
     50 H50         3.0573    3.3036   51.3458 H       1  ZINC000076573199    0.0900
     51 H51        -1.1959    3.0268   50.6938 H       1  ZINC000076573199    0.1400
@<TRIPOS>BOND
     1     1     2    1
     2     1    27    1
     3     1    28    1
     4     1    29    1
     5     2     3    1
     6     2    30    1
     7     2    31    1
     8     3     4    1
     9     3     5    1
    10     3     6    1
    11     5    32    1
    12     5    33    1
    13     5    34    1
    14     6     7    1
    15     6    35    1
    16     6    36    1
    17     7     8    1
    18     7     9    1
    19     7    10    1
    20     9    37    1
    21     9    38    1
    22     9    39    1
    23    10    11   am
    24    10    40    1
    25    11    12    2
    26    11    13    1
    27    13    14    2
    28    13    15   am
    29    15    16    1
    30    15    41    1
    31    16    26   ar
    32    16    17   ar
    33    17    18   ar
    34    17    42    1
    35    18    19   ar
    36    18    43    1
    37    19    20    1
    38    19    21   ar
    39    20    44    1
    40    20    45    1
    41    20    46    1
    42    21    22    1
    43    21    26   ar
    44    22    23   am
    45    22    47    1
    46    23    24    1
    47    23    25    2
    48    24    48    1
    49    24    49    1
    50    24    50    1
    51    26    51    1
@<TRIPOS>SUBSTRUCTURE
     1 ZINC000076573199        1 TEMP              0 ****  ****    0 ROOT


##########                                Name:    ZINC001016082614
##########                DOCK_Rotatable_Bonds:                   6
##########                         Heavy_Atoms:                  25
##########                    Molecular_Weight:             348.402
##########                DOCK_Rotatable_Bonds:                   6
##########                       Formal_Charge:         -0.00999998
##########                     HBond_Acceptors:                   8
##########                        HBond_Donors:                   1
##########                         Heavy_Atoms:                  25
##########                          Grid_Score:          -28.517324
##########                     Grid_vdw_energy:          -27.645033
##########                      Grid_es_energy:           -0.872291
##########           Internal_energy_repulsive:           37.302570

@<TRIPOS>MOLECULE
ZINC001016082614
 49 51 1 0 0
SMALL
USER_CHARGES


@<TRIPOS>ATOM
      1 C1         -1.5757    4.0438   51.9014 C.3     1  ZINC001016082614   -0.1700
      2 C2         -2.3122    4.6365   50.6983 C.3     1  ZINC001016082614    0.1000
      3 N3         -3.5515    3.8899   50.4683 N.am    1  ZINC001016082614   -0.6100
      4 C4         -3.5767    2.8863   49.5689 C.2     1  ZINC001016082614    0.6100
      5 O5         -4.6060    2.2662   49.3779 O.2     1  ZINC001016082614   -0.5100
      6 C6         -2.3627    2.5414   48.8204 C.2     1  ZINC001016082614   -0.1100
      7 C7         -2.2953    2.1439   47.5180 C.2     1  ZINC001016082614    0.0600
      8 N8         -1.0072    1.9305   47.2301 N.2     1  ZINC001016082614   -0.4900
      9 C9         -0.2877    2.1782   48.2917 C.2     1  ZINC001016082614    0.2000
     10 O10        -1.0926    2.5621   49.2873 O.3     1  ZINC001016082614   -0.1900
     11 C11        -4.7636    4.2342   51.2157 C.3     1  ZINC001016082614    0.1600
     12 H12        -4.5807    5.1593   51.7621 H       1  ZINC001016082614    0.0800
     13 C13        -5.8945    4.4750   50.2202 C.3     1  ZINC001016082614   -0.1300
     14 C14        -6.9067    5.4128   50.8306 C.3     1  ZINC001016082614   -0.1300
     15 C15        -8.0066    4.6096   51.5482 C.3     1  ZINC001016082614    0.1000
     16 N16        -7.4595    3.4560   52.2890 N.am    1  ZINC001016082614   -0.6000
     17 C17        -8.1164    2.2807   52.2313 C.2     1  ZINC001016082614    0.5000
     18 O18        -9.1352    2.1867   51.5801 O.2     1  ZINC001016082614   -0.5200
     19 C19        -7.5849    1.0830   52.9759 C.3     1  ZINC001016082614    0.1100
     20 H20        -6.4956    1.1092   53.0027 H       1  ZINC001016082614    0.1100
     21 C21        -8.0721   -0.2215   52.3074 C.3     1  ZINC001016082614   -0.1200
     22 C22        -9.3507   -0.5333   53.1191 C.3     1  ZINC001016082614   -0.1600
     23 C23        -9.1245    0.1556   54.4468 C.2     1  ZINC001016082614    0.5300
     24 O24        -9.7511   -0.0677   55.4609 O.2     1  ZINC001016082614   -0.5300
     25 N25        -8.1258    1.0520   54.3399 N.am    1  ZINC001016082614   -0.7100
     26 C26        -6.2477    3.5349   53.0737 C.3     1  ZINC001016082614    0.1300
     27 C27        -5.0332    3.1632   52.1873 C.3     1  ZINC001016082614   -0.1600
     28 H28        -0.6536    4.5992   52.0726 H       1  ZINC001016082614    0.0700
     29 H29        -2.2101    4.1115   52.7852 H       1  ZINC001016082614    0.0500
     30 H30        -1.3388    2.9985   51.7035 H       1  ZINC001016082614    0.0600
     31 H31        -2.5492    5.6819   50.8963 H       1  ZINC001016082614    0.0900
     32 H32        -1.6779    4.5688   49.8146 H       1  ZINC001016082614    0.0900
     33 H33        -3.1295    2.0231   46.8427 H       1  ZINC001016082614    0.2000
     34 H34         0.7870    2.0910   48.3538 H       1  ZINC001016082614    0.2600
     35 H35        -5.4899    4.9187   49.3105 H       1  ZINC001016082614    0.0700
     36 H36        -6.3757    3.5269   49.9801 H       1  ZINC001016082614    0.0800
     37 H37        -6.4087    6.0647   51.5483 H       1  ZINC001016082614    0.0700
     38 H38        -7.3566    6.0199   50.0451 H       1  ZINC001016082614    0.0800
     39 H39        -8.5249    5.2657   52.2475 H       1  ZINC001016082614    0.0700
     40 H40        -8.7210    4.2485   50.8083 H       1  ZINC001016082614    0.0800
     41 H41        -8.3079   -0.0566   51.2561 H       1  ZINC001016082614    0.1000
     42 H42        -7.3349   -1.0165   52.4201 H       1  ZINC001016082614    0.1000
     43 H43       -10.2286   -0.1223   52.6208 H       1  ZINC001016082614    0.1100
     44 H44        -9.4598   -1.6085   53.2609 H       1  ZINC001016082614    0.1100
     45 H45        -7.8063    1.6051   55.0699 H       1  ZINC001016082614    0.4200
     46 H46        -6.1260    4.5498   53.4523 H       1  ZINC001016082614    0.0800
     47 H47        -6.3121    2.8407   53.9115 H       1  ZINC001016082614    0.0900
     48 H48        -5.2446    2.2350   51.6565 H       1  ZINC001016082614    0.0900
     49 H49        -4.1555    3.0233   52.8182 H       1  ZINC001016082614    0.0700
@<TRIPOS>BOND
     1     1     2    1
     2     1    28    1
     3     1    29    1
     4     1    30    1
     5     2     3    1
     6     2    31    1
     7     2    32    1
     8     3     4   am
     9     3    11    1
    10     4     5    2
    11     4     6    1
    12     6    10    1
    13     6     7    2
    14     7     8    1
    15     7    33    1
    16     8     9    2
    17     9    10    1
    18     9    34    1
    19    11    12    1
    20    11    27    1
    21    11    13    1
    22    13    14    1
    23    13    35    1
    24    13    36    1
    25    14    15    1
    26    14    37    1
    27    14    38    1
    28    15    16    1
    29    15    39    1
    30    15    40    1
    31    16    17   am
    32    16    26    1
    33    17    18    2
    34    17    19    1
    35    19    20    1
    36    19    25    1
    37    19    21    1
    38    21    22    1
    39    21    41    1
    40    21    42    1
    41    22    23    1
    42    22    43    1
    43    22    44    1
    44    23    24    2
    45    23    25   am
    46    25    45    1
    47    26    27    1
    48    26    46    1
    49    26    47    1
    50    27    48    1
    51    27    49    1
@<TRIPOS>SUBSTRUCTURE
     1 ZINC001016082614        1 TEMP              0 ****  ****    0 ROOT


##########                                Name:    ZINC000010935976
##########                DOCK_Rotatable_Bonds:                   3
##########                         Heavy_Atoms:                  26
##########                    Molecular_Weight:             391.558
##########                DOCK_Rotatable_Bonds:                   3
##########                       Formal_Charge:         -0.00999979
##########                     HBond_Acceptors:                   7
##########                        HBond_Donors:                   1
##########                         Heavy_Atoms:                  26
##########                          Grid_Score:          -28.506546
##########                     Grid_vdw_energy:          -26.697739
##########                      Grid_es_energy:           -1.808807
##########           Internal_energy_repulsive:          128.433380

@<TRIPOS>MOLECULE
ZINC000010935976
 51 54 1 0 0
SMALL
USER_CHARGES


@<TRIPOS>ATOM
      1 C1          1.5416    2.8908   46.7141 C.3     1  ZINC000010935976   -0.0800
      2 C2          0.5945    3.1640   47.8540 C.2     1  ZINC000010935976   -0.2100
      3 C3         -0.6359    2.6955   47.9275 C.2     1  ZINC000010935976   -0.0400
      4 C4         -1.2364    1.8195   46.8582 C.3     1  ZINC000010935976   -0.1000
      5 C5         -1.3671    3.0881   49.1179 C.2     1  ZINC000010935976   -0.2300
      6 C6         -0.6047    3.8967   49.9580 C.2     1  ZINC000010935976    0.0900
      7 N7         -1.1365    4.3502   51.1106 N.2     1  ZINC000010935976   -0.4900
      8 C8         -2.3621    4.0491   51.4669 C.2     1  ZINC000010935976    0.3400
      9 S9         -2.9944    4.6766   52.9871 S.3     1  ZINC000010935976    0.0500
     10 C10        -1.6607    5.8148   53.4364 C.3     1  ZINC000010935976   -0.1000
     11 H11        -1.3381    6.3674   52.5539 H       1  ZINC000010935976    0.1400
     12 C12        -0.4811    5.0248   54.0082 C.3     1  ZINC000010935976   -0.1000
     13 C13        -0.9704    3.8265   54.8011 C.3     1  ZINC000010935976   -0.1300
     14 C14        -1.7198    4.1948   56.0685 C.3     1  ZINC000010935976   -0.1400
     15 C15        -3.0445    4.8849   55.7375 C.3     1  ZINC000010935976    0.0700
     16 N16        -2.7960    6.3261   55.5704 N.am    1  ZINC000010935976   -0.7200
     17 C17        -2.1522    6.7833   54.4916 C.2     1  ZINC000010935976    0.5400
     18 O18        -1.9580    7.9735   54.3629 O.2     1  ZINC000010935976   -0.5200
     19 N19        -3.1598    3.2617   50.6881 N.am    1  ZINC000010935976   -0.5100
     20 C20        -4.5237    2.9495   51.1225 C.3     1  ZINC000010935976    0.1200
     21 C21        -5.5412    3.7571   50.2904 C.3     1  ZINC000010935976   -0.1300
     22 C22        -5.9672    2.7842   49.1630 C.3     1  ZINC000010935976   -0.1300
     23 C23        -6.0233    1.4191   49.8925 C.3     1  ZINC000010935976   -0.1100
     24 C24        -4.8302    1.4629   50.8695 C.3     1  ZINC000010935976   -0.1200
     25 C25        -2.6988    2.7711   49.5213 C.2     1  ZINC000010935976    0.5600
     26 O26        -3.4070    2.0670   48.8220 O.2     1  ZINC000010935976   -0.5000
     27 S27         0.9898    4.1396   49.2562 S.3     1  ZINC000010935976    0.2100
     28 H28         2.4917    3.3905   46.9033 H       1  ZINC000010935976    0.0700
     29 H29         1.7067    1.8168   46.6284 H       1  ZINC000010935976    0.0800
     30 H30         1.1115    3.2674   45.7861 H       1  ZINC000010935976    0.0800
     31 H31        -1.0336    0.7737   47.0890 H       1  ZINC000010935976    0.0700
     32 H32        -2.3136    1.9808   46.8189 H       1  ZINC000010935976    0.0800
     33 H33        -0.7959    2.0706   45.8933 H       1  ZINC000010935976    0.0700
     34 H34         0.1504    4.6798   53.1894 H       1  ZINC000010935976    0.0900
     35 H35         0.1024    5.6735   54.6615 H       1  ZINC000010935976    0.0900
     36 H36        -1.6300    3.2351   54.1662 H       1  ZINC000010935976    0.0700
     37 H37        -0.1106    3.2133   55.0711 H       1  ZINC000010935976    0.0800
     38 H38        -1.9206    3.2900   56.6420 H       1  ZINC000010935976    0.0800
     39 H39        -1.1046    4.8677   56.6658 H       1  ZINC000010935976    0.0700
     40 H40        -3.4499    4.4741   54.8128 H       1  ZINC000010935976    0.1100
     41 H41        -3.7521    4.7277   56.5516 H       1  ZINC000010935976    0.0900
     42 H42        -3.1036    6.9497   56.2468 H       1  ZINC000010935976    0.4000
     43 H43        -4.6399    3.1797   52.1816 H       1  ZINC000010935976    0.1000
     44 H44        -6.4007    4.0325   50.9015 H       1  ZINC000010935976    0.0800
     45 H45        -5.0704    4.6456   49.8699 H       1  ZINC000010935976    0.0700
     46 H46        -6.9480    3.0532   48.7709 H       1  ZINC000010935976    0.0600
     47 H47        -5.2232    2.7663   48.3666 H       1  ZINC000010935976    0.1100
     48 H48        -6.9606    1.3170   50.4394 H       1  ZINC000010935976    0.0600
     49 H49        -5.9043    0.6014   49.1817 H       1  ZINC000010935976    0.0700
     50 H50        -3.9642    0.9739   50.4235 H       1  ZINC000010935976    0.0800
     51 H51        -5.0959    0.9720   51.8057 H       1  ZINC000010935976    0.0700
@<TRIPOS>BOND
     1     1     2    1
     2     1    28    1
     3     1    29    1
     4     1    30    1
     5     2    27    1
     6     2     3    2
     7     3     4    1
     8     3     5    1
     9     4    31    1
    10     4    32    1
    11     4    33    1
    12     5    25    1
    13     5     6    2
    14     6     7    1
    15     6    27    1
    16     7     8    2
    17     8     9    1
    18     8    19    1
    19     9    10    1
    20    10    11    1
    21    10    17    1
    22    10    12    1
    23    12    13    1
    24    12    34    1
    25    12    35    1
    26    13    14    1
    27    13    36    1
    28    13    37    1
    29    14    15    1
    30    14    38    1
    31    14    39    1
    32    15    16    1
    33    15    40    1
    34    15    41    1
    35    16    17   am
    36    16    42    1
    37    17    18    2
    38    19    20    1
    39    19    25   am
    40    20    24    1
    41    20    21    1
    42    20    43    1
    43    21    22    1
    44    21    44    1
    45    21    45    1
    46    22    23    1
    47    22    46    1
    48    22    47    1
    49    23    24    1
    50    23    48    1
    51    23    49    1
    52    24    50    1
    53    24    51    1
    54    25    26    2
@<TRIPOS>SUBSTRUCTURE
     1 ZINC000010935976        1 TEMP              0 ****  ****    0 ROOT


##########                                Name:    ZINC000854704989
##########                DOCK_Rotatable_Bonds:                   5
##########                         Heavy_Atoms:                  22
##########                    Molecular_Weight:             365.227
##########                DOCK_Rotatable_Bonds:                   5
##########                       Formal_Charge:        -1.78814e-07
##########                     HBond_Acceptors:                   5
##########                        HBond_Donors:                   1
##########                         Heavy_Atoms:                  22
##########                          Grid_Score:          -28.497709
##########                     Grid_vdw_energy:          -28.168192
##########                      Grid_es_energy:           -0.329517
##########           Internal_energy_repulsive:            7.077568

@<TRIPOS>MOLECULE
ZINC000854704989
 39 41 1 0 0
SMALL
USER_CHARGES


@<TRIPOS>ATOM
      1 O1         -9.5484   -1.4595   54.0119 O.2     1  ZINC000854704989   -0.5300
      2 C2        -10.0452   -0.3541   53.9174 C.2     1  ZINC000854704989    0.5700
      3 N3        -11.1278   -0.0366   54.6547 N.am    1  ZINC000854704989   -0.7300
      4 C4        -11.7095   -1.0256   55.5656 C.3     1  ZINC000854704989    0.2000
      5 C5        -10.7892   -1.2280   56.7416 C.2     1  ZINC000854704989   -0.0500
      6 C6         -9.9840   -0.2993   57.3097 C.2     1  ZINC000854704989   -0.1700
      7 C7         -9.3440   -0.9983   58.3602 C.2     1  ZINC000854704989    0.0000
      8 Br8        -8.0746   -0.3020   59.5766 Br      1  ZINC000854704989    0.0600
      9 N9         -9.8031   -2.2169   58.3233 N.2     1  ZINC000854704989   -0.3200
     10 O10       -10.6107   -2.3612   57.4350 O.3     1  ZINC000854704989    0.1300
     11 C11        -9.4582    0.6441   52.9982 C.ar    1  ZINC000854704989   -0.1300
     12 C12       -10.2169    1.7346   52.5706 C.ar    1  ZINC000854704989   -0.0900
     13 C13        -9.6629    2.6627   51.7131 C.ar    1  ZINC000854704989   -0.1200
     14 C14        -8.3587    2.5139   51.2768 C.ar    1  ZINC000854704989   -0.0900
     15 C15        -7.6009    1.4348   51.6970 C.ar    1  ZINC000854704989   -0.0800
     16 C16        -6.1808    1.2808   51.2166 C.3     1  ZINC000854704989   -0.0800
     17 H17        -5.7427    0.3850   51.6565 H       1  ZINC000854704989    0.0900
     18 C18        -5.3637    2.5078   51.6328 C.3     1  ZINC000854704989   -0.1100
     19 C19        -3.9441    2.3760   51.0727 C.3     1  ZINC000854704989   -0.1600
     20 C20        -4.0168    2.2149   49.5519 C.3     1  ZINC000854704989    0.0600
     21 O21        -4.8161    1.0742   49.2328 O.3     1  ZINC000854704989   -0.3800
     22 C22        -6.1673    1.1604   49.6904 C.3     1  ZINC000854704989    0.0700
     23 C23        -8.1408    0.5029   52.5587 C.ar    1  ZINC000854704989   -0.0500
     24 H24       -11.5219    0.8468   54.5822 H       1  ZINC000854704989    0.4000
     25 H25       -12.6773   -0.6695   55.9186 H       1  ZINC000854704989    0.1100
     26 H26       -11.8402   -1.9713   55.0395 H       1  ZINC000854704989    0.1000
     27 H27        -9.8589    0.7354   57.0265 H       1  ZINC000854704989    0.1900
     28 H28       -11.2355    1.8515   52.9100 H       1  ZINC000854704989    0.1200
     29 H29       -10.2490    3.5071   51.3815 H       1  ZINC000854704989    0.1300
     30 H30        -7.9299    3.2429   50.6051 H       1  ZINC000854704989    0.1300
     31 H31        -5.8305    3.4088   51.2349 H       1  ZINC000854704989    0.0700
     32 H32        -5.3225    2.5667   52.7204 H       1  ZINC000854704989    0.0700
     33 H33        -3.3716    3.2707   51.3172 H       1  ZINC000854704989    0.0800
     34 H34        -3.4601    1.5022   51.5088 H       1  ZINC000854704989    0.0700
     35 H35        -4.4642    3.1067   49.1130 H       1  ZINC000854704989    0.0500
     36 H36        -3.0119    2.0779   49.1525 H       1  ZINC000854704989    0.1000
     37 H37        -6.7106    0.2645   49.3902 H       1  ZINC000854704989    0.1000
     38 H38        -6.6437    2.0382   49.2537 H       1  ZINC000854704989    0.0500
     39 H39        -7.5483   -0.3386   52.8862 H       1  ZINC000854704989    0.1400
@<TRIPOS>BOND
     1     1     2    2
     2     2     3   am
     3     2    11    1
     4     3     4    1
     5     3    24    1
     6     4     5    1
     7     4    25    1
     8     4    26    1
     9     5    10    1
    10     5     6    2
    11     6     7    1
    12     6    27    1
    13     7     8    1
    14     7     9    2
    15     9    10    1
    16    11    23   ar
    17    11    12   ar
    18    12    13   ar
    19    12    28    1
    20    13    14   ar
    21    13    29    1
    22    14    15   ar
    23    14    30    1
    24    15    16    1
    25    15    23   ar
    26    16    17    1
    27    16    22    1
    28    16    18    1
    29    18    19    1
    30    18    31    1
    31    18    32    1
    32    19    20    1
    33    19    33    1
    34    19    34    1
    35    20    21    1
    36    20    35    1
    37    20    36    1
    38    21    22    1
    39    22    37    1
    40    22    38    1
    41    23    39    1
@<TRIPOS>SUBSTRUCTURE
     1 ZINC000854704989        1 TEMP              0 ****  ****    0 ROOT


##########                                Name:    ZINC001076281847
##########                DOCK_Rotatable_Bonds:                   4
##########                         Heavy_Atoms:                  24
##########                    Molecular_Weight:             362.883
##########                DOCK_Rotatable_Bonds:                   4
##########                       Formal_Charge:         -0.00999959
##########                     HBond_Acceptors:                   7
##########                        HBond_Donors:                   0
##########                         Heavy_Atoms:                  24
##########                          Grid_Score:          -28.460043
##########                     Grid_vdw_energy:          -28.232464
##########                      Grid_es_energy:           -0.227579
##########           Internal_energy_repulsive:            9.902129

@<TRIPOS>MOLECULE
ZINC001076281847
 43 46 1 0 0
SMALL
USER_CHARGES


@<TRIPOS>ATOM
      1 C1         -4.7402    3.7121   49.9528 C.3     1  ZINC001076281847   -0.0900
      2 C2         -5.1213    2.3161   50.3738 C.2     1  ZINC001076281847    0.1400
      3 N3         -4.6678    1.2691   49.7493 N.2     1  ZINC001076281847   -0.4600
      4 S4         -5.3210   -0.0940   50.5187 S.3     1  ZINC001076281847    0.2500
      5 C5         -6.2150    0.7862   51.6960 C.2     1  ZINC001076281847   -0.2100
      6 C6         -7.0910    0.2226   52.7851 C.3     1  ZINC001076281847    0.1200
      7 N7         -8.5024    0.4304   52.4348 N.3     1  ZINC001076281847   -0.5000
      8 C8         -8.9460    1.7813   52.8128 C.3     1  ZINC001076281847    0.0300
      9 C9        -10.3797    1.6425   53.3589 C.3     1  ZINC001076281847   -0.1000
     10 H10       -11.1487    1.8503   52.6150 H       1  ZINC001076281847    0.1200
     11 C11       -10.5008    2.5187   54.6334 C.3     1  ZINC001076281847   -0.1300
     12 C12        -9.7047    1.6845   55.6671 C.3     1  ZINC001076281847    0.1000
     13 N13       -10.0199    0.2817   55.3423 N.am    1  ZINC001076281847   -0.6000
     14 C14        -9.9572   -0.7554   56.2007 C.2     1  ZINC001076281847    0.5700
     15 O15       -10.2406   -1.8750   55.8228 O.2     1  ZINC001076281847   -0.4900
     16 C16        -9.5428   -0.5306   57.6044 C.ar    1  ZINC001076281847   -0.0800
     17 C17        -8.3481    0.1312   57.9039 C.ar    1  ZINC001076281847   -0.1800
     18 C18        -8.0002    0.3200   59.2274 C.ar    1  ZINC001076281847    0.1000
     19 N19        -8.7763   -0.1136   60.2005 N.ar    1  ZINC001076281847   -0.4500
     20 C20        -9.9103   -0.7420   59.9639 C.ar    1  ZINC001076281847    0.1100
     21 C21       -10.3389   -0.9694   58.6687 C.ar    1  ZINC001076281847   -0.0500
     22 Cl22      -11.8347   -1.7976   58.3677 Cl      1  ZINC001076281847   -0.0100
     23 C23       -10.4210    0.1915   53.9098 C.3     1  ZINC001076281847    0.1000
     24 H24       -11.4081   -0.2585   53.8026 H       1  ZINC001076281847    0.1100
     25 C25        -9.3613   -0.5636   53.0957 C.3     1  ZINC001076281847    0.0200
     26 C26        -5.9621    2.0891   51.4418 C.2     1  ZINC001076281847   -0.1800
     27 H27        -3.8871    4.0490   50.5417 H       1  ZINC001076281847    0.0700
     28 H28        -4.4751    3.7132   48.8956 H       1  ZINC001076281847    0.0800
     29 H29        -5.5828    4.3839   50.1167 H       1  ZINC001076281847    0.0900
     30 H30        -6.8964   -0.8445   52.8920 H       1  ZINC001076281847    0.1000
     31 H31        -6.8718    0.7279   53.7256 H       1  ZINC001076281847    0.1000
     32 H32        -8.2910    2.1866   53.5840 H       1  ZINC001076281847    0.0600
     33 H33        -8.9415    2.4331   51.9392 H       1  ZINC001076281847    0.0900
     34 H34       -10.0396    3.4944   54.4812 H       1  ZINC001076281847    0.0900
     35 H35       -11.5425    2.6244   54.9365 H       1  ZINC001076281847    0.0800
     36 H36        -8.6356    1.8678   55.5599 H       1  ZINC001076281847    0.0800
     37 H37       -10.0318    1.9224   56.6792 H       1  ZINC001076281847    0.0800
     38 H38        -7.7065    0.4892   57.1123 H       1  ZINC001076281847    0.1800
     39 H39        -7.0790    0.8298   59.4681 H       1  ZINC001076281847    0.1700
     40 H40       -10.5150   -1.0800   60.7924 H       1  ZINC001076281847    0.1700
     41 H41        -9.8485   -1.2013   52.3580 H       1  ZINC001076281847    0.1000
     42 H42        -8.7492   -1.1719   53.7617 H       1  ZINC001076281847    0.0700
     43 H43        -6.3908    2.8901   52.0258 H       1  ZINC001076281847    0.1400
@<TRIPOS>BOND
     1     1     2    1
     2     1    27    1
     3     1    28    1
     4     1    29    1
     5     2    26    1
     6     2     3    2
     7     3     4    1
     8     4     5    1
     9     5     6    1
    10     5    26    2
    11     6     7    1
    12     6    30    1
    13     6    31    1
    14     7    25    1
    15     7     8    1
    16     8     9    1
    17     8    32    1
    18     8    33    1
    19     9    10    1
    20     9    23    1
    21     9    11    1
    22    11    12    1
    23    11    34    1
    24    11    35    1
    25    12    13    1
    26    12    36    1
    27    12    37    1
    28    13    14   am
    29    13    23    1
    30    14    15    2
    31    14    16    1
    32    16    21   ar
    33    16    17   ar
    34    17    18   ar
    35    17    38    1
    36    18    19   ar
    37    18    39    1
    38    19    20   ar
    39    20    21   ar
    40    20    40    1
    41    21    22    1
    42    23    24    1
    43    23    25    1
    44    25    41    1
    45    25    42    1
    46    26    43    1
@<TRIPOS>SUBSTRUCTURE
     1 ZINC001076281847        1 TEMP              0 ****  ****    0 ROOT


##########                                Name:    ZINC000337709254
##########                DOCK_Rotatable_Bonds:                   7
##########                         Heavy_Atoms:                  22
##########                    Molecular_Weight:              329.42
##########                DOCK_Rotatable_Bonds:                   7
##########                       Formal_Charge:           0.0300004
##########                     HBond_Acceptors:                   8
##########                        HBond_Donors:                   2
##########                         Heavy_Atoms:                  22
##########                          Grid_Score:          -28.351156
##########                     Grid_vdw_energy:          -27.230562
##########                      Grid_es_energy:           -1.120595
##########           Internal_energy_repulsive:            9.590771

@<TRIPOS>MOLECULE
ZINC000337709254
 45 46 1 0 0
SMALL
USER_CHARGES


@<TRIPOS>ATOM
      1 C1         -5.8520    4.7924   56.0606 C.3     1  ZINC000337709254   -0.6700
      2 S2         -6.6159    3.4805   57.0535 S.o2    1  ZINC000337709254    2.6100
      3 O3         -5.7477    2.3598   57.1515 O.2     1  ZINC000337709254   -0.9500
      4 O4         -7.2395    4.0274   58.2073 O.2     1  ZINC000337709254   -0.9500
      5 N5         -7.8765    2.9406   56.1252 N.am    1  ZINC000337709254   -1.1200
      6 C6         -7.6201    2.3816   54.7955 C.3     1  ZINC000337709254    0.1200
      7 C7         -8.6507    1.2920   54.4929 C.3     1  ZINC000337709254   -0.1100
      8 H8         -8.6942    0.5718   55.3100 H       1  ZINC000337709254    0.1100
      9 C9        -10.0459    1.9185   54.2477 C.3     1  ZINC000337709254   -0.1200
     10 C10       -10.7608    0.8387   53.3980 C.3     1  ZINC000337709254   -0.1200
     11 C11        -9.6561    0.2968   52.4674 C.3     1  ZINC000337709254   -0.1400
     12 C12        -8.3125    0.5826   53.1654 C.3     1  ZINC000337709254    0.1500
     13 H13        -7.7870   -0.3522   53.3608 H       1  ZINC000337709254    0.1000
     14 N14        -7.4874    1.4559   52.3272 N.am    1  ZINC000337709254   -0.7200
     15 C15        -6.4612    0.9401   51.6221 C.2     1  ZINC000337709254    0.5300
     16 O16        -6.2218   -0.2475   51.6802 O.2     1  ZINC000337709254   -0.5100
     17 C17        -5.6114    1.8387   50.7612 C.3     1  ZINC000337709254    0.0200
     18 C18        -6.4788    2.6746   49.9153 C.1     1  ZINC000337709254    0.2000
     19 N19        -7.1482    3.3196   49.2623 N.1     1  ZINC000337709254   -0.3900
     20 C20        -4.7460    2.7341   51.6533 C.3     1  ZINC000337709254   -0.1500
     21 C21        -3.8301    3.5871   50.7717 C.3     1  ZINC000337709254    0.0600
     22 O22        -3.0310    2.7329   49.9505 O.3     1  ZINC000337709254   -0.3700
     23 C23        -3.7848    1.9062   49.0615 C.3     1  ZINC000337709254    0.0600
     24 C24        -4.6990    0.9857   49.8744 C.3     1  ZINC000337709254   -0.1300
     25 H25        -5.5105    4.3781   55.1120 H       1  ZINC000337709254    0.1300
     26 H26        -6.5839    5.5779   55.8716 H       1  ZINC000337709254    0.1300
     27 H27        -5.0027    5.2097   56.6015 H       1  ZINC000337709254    0.1300
     28 H28        -8.7846    2.9944   56.4618 H       1  ZINC000337709254    0.4200
     29 H29        -7.6966    3.1715   54.0483 H       1  ZINC000337709254    0.0600
     30 H30        -6.6187    1.9520   54.7689 H       1  ZINC000337709254    0.0900
     31 H31       -10.5692    2.0772   55.1906 H       1  ZINC000337709254    0.0800
     32 H32        -9.9578    2.8519   53.6916 H       1  ZINC000337709254    0.0700
     33 H33       -11.1456    0.0437   54.0367 H       1  ZINC000337709254    0.0700
     34 H34       -11.5666    1.2841   52.8145 H       1  ZINC000337709254    0.0700
     35 H35        -9.7804   -0.7768   52.3262 H       1  ZINC000337709254    0.0800
     36 H36        -9.6948    0.8074   51.5053 H       1  ZINC000337709254    0.0700
     37 H37        -7.6796    2.4055   52.2798 H       1  ZINC000337709254    0.4000
     38 H38        -5.3874    3.3842   52.2484 H       1  ZINC000337709254    0.0900
     39 H39        -4.1408    2.1138   52.3143 H       1  ZINC000337709254    0.1100
     40 H40        -4.4357    4.2364   50.1394 H       1  ZINC000337709254    0.0500
     41 H41        -3.1818    4.1954   51.4024 H       1  ZINC000337709254    0.1100
     42 H42        -4.3899    2.5336   48.4069 H       1  ZINC000337709254    0.0500
     43 H43        -3.1040    1.3037   48.4603 H       1  ZINC000337709254    0.1100
     44 H44        -4.0928    0.3301   50.4996 H       1  ZINC000337709254    0.1100
     45 H45        -5.3067    0.3856   49.1974 H       1  ZINC000337709254    0.0900
@<TRIPOS>BOND
     1     1     2    1
     2     1    25    1
     3     1    26    1
     4     1    27    1
     5     2     3    2
     6     2     4    2
     7     2     5   am
     8     5     6    1
     9     5    28    1
    10     6     7    1
    11     6    29    1
    12     6    30    1
    13     7     8    1
    14     7    12    1
    15     7     9    1
    16     9    10    1
    17     9    31    1
    18     9    32    1
    19    10    11    1
    20    10    33    1
    21    10    34    1
    22    11    12    1
    23    11    35    1
    24    11    36    1
    25    12    13    1
    26    12    14    1
    27    14    15   am
    28    14    37    1
    29    15    16    2
    30    15    17    1
    31    17    24    1
    32    17    18    1
    33    17    20    1
    34    18    19    3
    35    20    21    1
    36    20    38    1
    37    20    39    1
    38    21    22    1
    39    21    40    1
    40    21    41    1
    41    22    23    1
    42    23    24    1
    43    23    42    1
    44    23    43    1
    45    24    44    1
    46    24    45    1
@<TRIPOS>SUBSTRUCTURE
     1 ZINC000337709254        1 TEMP              0 ****  ****    0 ROOT


##########                                Name:    ZINC000288921983
##########                DOCK_Rotatable_Bonds:                   6
##########                         Heavy_Atoms:                  26
##########                    Molecular_Weight:             356.428
##########                DOCK_Rotatable_Bonds:                   6
##########                       Formal_Charge:           0.0199997
##########                     HBond_Acceptors:                   8
##########                        HBond_Donors:                   1
##########                         Heavy_Atoms:                  26
##########                          Grid_Score:          -28.337618
##########                     Grid_vdw_energy:          -28.371721
##########                      Grid_es_energy:            0.034103
##########           Internal_energy_repulsive:           59.389561

@<TRIPOS>MOLECULE
ZINC000288921983
 50 53 1 0 0
SMALL
USER_CHARGES


@<TRIPOS>ATOM
      1 C1        -15.4536   -0.1993   47.1297 C.3     1  ZINC000288921983   -0.1400
      2 C2        -14.0974    0.5081   47.0934 C.3     1  ZINC000288921983   -0.0500
      3 C3        -13.6685    0.8445   48.4984 C.ar    1  ZINC000288921983    0.3000
      4 N4        -13.6494   -0.1097   49.4073 N.ar    1  ZINC000288921983   -0.5000
      5 C5        -13.2791    0.1448   50.6513 C.ar    1  ZINC000288921983    0.1300
      6 C6        -12.9067    1.4421   50.9932 C.ar    1  ZINC000288921983    0.0500
      7 N7        -12.5077    1.7545   52.2983 N.am    1  ZINC000288921983   -0.6700
      8 C8        -11.2160    1.6202   52.6585 C.2     1  ZINC000288921983    0.7100
      9 O9        -10.3971    1.2274   51.8500 O.2     1  ZINC000288921983   -0.5500
     10 N10       -10.8319    1.9210   53.9148 N.am    1  ZINC000288921983   -0.6200
     11 C11       -11.8098    2.3965   54.9029 C.3     1  ZINC000288921983    0.1100
     12 C12       -11.7195    1.5125   56.1509 C.3     1  ZINC000288921983   -0.1400
     13 C13       -10.2745    1.4946   56.6548 C.3     1  ZINC000288921983   -0.1200
     14 C14        -9.3638    0.9027   55.5767 C.3     1  ZINC000288921983   -0.1300
     15 C15        -9.4285    1.7739   54.3240 C.3     1  ZINC000288921983    0.2700
     16 H16        -9.0123    2.7576   54.5412 H       1  ZINC000288921983    0.1100
     17 C17        -8.6396    1.1250   53.2160 C.2     1  ZINC000288921983    0.1700
     18 N18        -8.5241   -0.1543   52.9991 N.2     1  ZINC000288921983   -0.2500
     19 N19        -7.7776   -0.3470   51.9689 N.2     1  ZINC000288921983   -0.2700
     20 C20        -7.3917    0.8029   51.4936 C.2     1  ZINC000288921983    0.1800
     21 C21        -6.5069    1.0200   50.2931 C.3     1  ZINC000288921983   -0.0300
     22 C22        -5.6783    2.3134   50.3644 C.3     1  ZINC000288921983   -0.1200
     23 C23        -4.5959    1.4876   51.0793 C.3     1  ZINC000288921983   -0.1400
     24 C24        -5.1745    0.2556   50.3636 C.3     1  ZINC000288921983   -0.1200
     25 O25        -7.9311    1.7599   52.2672 O.3     1  ZINC000288921983   -0.2200
     26 C26       -12.9410    2.4202   50.0031 C.ar    1  ZINC000288921983    0.1600
     27 N27       -13.3182    2.0833   48.7810 N.ar    1  ZINC000288921983   -0.5000
     28 H28       -15.7637   -0.4426   46.1135 H       1  ZINC000288921983    0.0700
     29 H29       -15.3697   -1.1161   47.7134 H       1  ZINC000288921983    0.0600
     30 H30       -16.1934    0.4569   47.5881 H       1  ZINC000288921983    0.0600
     31 H31       -13.3575   -0.1480   46.6350 H       1  ZINC000288921983    0.0900
     32 H32       -14.1813    1.4248   46.5098 H       1  ZINC000288921983    0.0900
     33 H33       -13.2662   -0.6420   51.3910 H       1  ZINC000288921983    0.1700
     34 H34       -13.1611    2.0678   52.9432 H       1  ZINC000288921983    0.4100
     35 H35       -11.5867    3.4294   55.1700 H       1  ZINC000288921983    0.0800
     36 H36       -12.8136    2.3340   54.4828 H       1  ZINC000288921983    0.0800
     37 H37       -12.3709    1.9125   56.9279 H       1  ZINC000288921983    0.0900
     38 H38       -12.0304    0.4981   55.9013 H       1  ZINC000288921983    0.0700
     39 H39        -9.9560    2.5122   56.8807 H       1  ZINC000288921983    0.0700
     40 H40       -10.2122    0.8860   57.5570 H       1  ZINC000288921983    0.0800
     41 H41        -8.3385    0.8687   55.9452 H       1  ZINC000288921983    0.0900
     42 H42        -9.6969   -0.1060   55.3327 H       1  ZINC000288921983    0.0900
     43 H43        -7.0355    0.8899   49.3488 H       1  ZINC000288921983    0.1000
     44 H44        -5.3684    2.6878   49.3886 H       1  ZINC000288921983    0.1000
     45 H45        -6.1252    3.0842   50.9922 H       1  ZINC000288921983    0.0800
     46 H46        -3.5810    1.7362   50.7691 H       1  ZINC000288921983    0.0700
     47 H47        -4.7133    1.4585   52.1626 H       1  ZINC000288921983    0.1000
     48 H48        -5.2146   -0.6350   50.9908 H       1  ZINC000288921983    0.0700
     49 H49        -4.7268    0.0673   49.3877 H       1  ZINC000288921983    0.1000
     50 H50       -12.6599    3.4383   50.2286 H       1  ZINC000288921983    0.1800
@<TRIPOS>BOND
     1     1     2    1
     2     1    28    1
     3     1    29    1
     4     1    30    1
     5     2     3    1
     6     2    31    1
     7     2    32    1
     8     3    27   ar
     9     3     4   ar
    10     4     5   ar
    11     5     6   ar
    12     5    33    1
    13     6     7    1
    14     6    26   ar
    15     7     8   am
    16     7    34    1
    17     8     9    2
    18     8    10   am
    19    10    15    1
    20    10    11    1
    21    11    12    1
    22    11    35    1
    23    11    36    1
    24    12    13    1
    25    12    37    1
    26    12    38    1
    27    13    14    1
    28    13    39    1
    29    13    40    1
    30    14    15    1
    31    14    41    1
    32    14    42    1
    33    15    16    1
    34    15    17    1
    35    17    25    1
    36    17    18    2
    37    18    19    1
    38    19    20    2
    39    20    21    1
    40    20    25    1
    41    21    24    1
    42    21    22    1
    43    21    43    1
    44    22    23    1
    45    22    44    1
    46    22    45    1
    47    23    24    1
    48    23    46    1
    49    23    47    1
    50    24    48    1
    51    24    49    1
    52    26    27   ar
    53    26    50    1
@<TRIPOS>SUBSTRUCTURE
     1 ZINC000288921983        1 TEMP              0 ****  ****    0 ROOT


##########                                Name:    ZINC000302023461
##########                DOCK_Rotatable_Bonds:                   3
##########                         Heavy_Atoms:                  25
##########                    Molecular_Weight:             356.362
##########                DOCK_Rotatable_Bonds:                   3
##########                       Formal_Charge:        -2.08616e-07
##########                     HBond_Acceptors:                   9
##########                        HBond_Donors:                   1
##########                         Heavy_Atoms:                  25
##########                          Grid_Score:          -28.325317
##########                     Grid_vdw_energy:          -27.213127
##########                      Grid_es_energy:           -1.112190
##########           Internal_energy_repulsive:           18.822477

@<TRIPOS>MOLECULE
ZINC000302023461
 37 40 1 0 0
SMALL
USER_CHARGES


@<TRIPOS>ATOM
      1 O1        -13.4844    0.8369   57.7891 O.2     1  ZINC000302023461   -0.1600
      2 N2        -12.8094    0.6840   56.7868 N.pl3   1  ZINC000302023461    0.0200
      3 O3        -12.8660    1.4997   55.8842 O.2     1  ZINC000302023461   -0.1300
      4 C4        -11.9156   -0.4902   56.6686 C.ar    1  ZINC000302023461    0.0000
      5 C5        -11.8508   -1.4154   57.6912 C.ar    1  ZINC000302023461   -0.0600
      6 C6        -11.0160   -2.5128   57.5815 C.ar    1  ZINC000302023461   -0.0900
      7 C7        -10.2438   -2.6877   56.4477 C.ar    1  ZINC000302023461   -0.0800
      8 C8        -10.3036   -1.7663   55.4207 C.ar    1  ZINC000302023461   -0.0500
      9 C9        -11.1449   -0.6655   55.5252 C.ar    1  ZINC000302023461   -0.1100
     10 S10       -11.2249    0.5123   54.2172 S.3     1  ZINC000302023461    0.1900
     11 C11        -9.5332    0.9295   53.9556 C.2     1  ZINC000302023461    0.2100
     12 N12        -8.7336    1.4665   54.8482 N.2     1  ZINC000302023461   -0.3200
     13 N13        -7.4834    1.6330   54.2307 N.pl3   1  ZINC000302023461   -0.4700
     14 C14        -7.6173    1.1706   52.9671 C.2     1  ZINC000302023461    0.3500
     15 C15        -6.5588    1.1404   51.9350 C.ar    1  ZINC000302023461   -0.0400
     16 C16        -6.2500   -0.0545   51.2843 C.ar    1  ZINC000302023461   -0.0900
     17 C17        -5.2612   -0.0803   50.3235 C.ar    1  ZINC000302023461   -0.1100
     18 C18        -4.5697    1.0795   49.9998 C.ar    1  ZINC000302023461    0.0800
     19 O19        -3.5920    1.0290   49.0547 O.3     1  ZINC000302023461   -0.3000
     20 C20        -3.1767    2.2773   48.4902 C.3     1  ZINC000302023461    0.0200
     21 C21        -2.9692    3.2777   49.6352 C.3     1  ZINC000302023461    0.0200
     22 O22        -4.2102    3.4224   50.3342 O.3     1  ZINC000302023461   -0.3000
     23 C23        -4.8754    2.2755   50.6432 C.ar    1  ZINC000302023461    0.0500
     24 C24        -5.8697    2.3081   51.6050 C.ar    1  ZINC000302023461   -0.0500
     25 N25        -8.8565    0.7453   52.8199 N.2     1  ZINC000302023461   -0.5000
     26 H26       -12.4525   -1.2819   58.5781 H       1  ZINC000302023461    0.1600
     27 H27       -10.9668   -3.2346   58.3833 H       1  ZINC000302023461    0.1500
     28 H28        -9.5932   -3.5458   56.3654 H       1  ZINC000302023461    0.1500
     29 H29        -9.6998   -1.9032   54.5358 H       1  ZINC000302023461    0.1600
     30 H30        -6.6826    2.0062   54.6312 H       1  ZINC000302023461    0.4400
     31 H31        -6.7850   -0.9591   51.5334 H       1  ZINC000302023461    0.1300
     32 H32        -5.0234   -1.0063   49.8210 H       1  ZINC000302023461    0.1500
     33 H33        -2.2418    2.1419   47.9464 H       1  ZINC000302023461    0.1300
     34 H34        -3.9459    2.6484   47.8128 H       1  ZINC000302023461    0.0800
     35 H35        -2.2051    2.9033   50.3166 H       1  ZINC000302023461    0.0800
     36 H36        -2.6609    4.2415   49.2301 H       1  ZINC000302023461    0.1300
     37 H37        -6.1095    3.2360   52.1030 H       1  ZINC000302023461    0.1600
@<TRIPOS>BOND
     1     1     2    2
     2     2     3    2
     3     2     4    1
     4     4     9   ar
     5     4     5   ar
     6     5     6   ar
     7     5    26    1
     8     6     7   ar
     9     6    27    1
    10     7     8   ar
    11     7    28    1
    12     8     9   ar
    13     8    29    1
    14     9    10    1
    15    10    11    1
    16    11    25    1
    17    11    12    2
    18    12    13    1
    19    13    14    1
    20    13    30    1
    21    14    15    1
    22    14    25    2
    23    15    24   ar
    24    15    16   ar
    25    16    17   ar
    26    16    31    1
    27    17    18   ar
    28    17    32    1
    29    18    23   ar
    30    18    19    1
    31    19    20    1
    32    20    21    1
    33    20    33    1
    34    20    34    1
    35    21    22    1
    36    21    35    1
    37    21    36    1
    38    22    23    1
    39    23    24   ar
    40    24    37    1
@<TRIPOS>SUBSTRUCTURE
     1 ZINC000302023461        1 TEMP              0 ****  ****    0 ROOT


##########                                Name:    ZINC000888733009
##########                DOCK_Rotatable_Bonds:                   6
##########                         Heavy_Atoms:                  25
##########                    Molecular_Weight:             360.434
##########                DOCK_Rotatable_Bonds:                   6
##########                       Formal_Charge:        -1.02073e-06
##########                     HBond_Acceptors:                   7
##########                        HBond_Donors:                   2
##########                         Heavy_Atoms:                  25
##########                          Grid_Score:          -28.306087
##########                     Grid_vdw_energy:          -27.077547
##########                      Grid_es_energy:           -1.228541
##########           Internal_energy_repulsive:            6.697418

@<TRIPOS>MOLECULE
ZINC000888733009
 45 48 1 0 0
SMALL
USER_CHARGES


@<TRIPOS>ATOM
      1 C1         -3.1021    3.0627   49.8901 C.3     1  ZINC000888733009   -0.1500
      2 C2         -4.6163    2.8429   49.8914 C.3     1  ZINC000888733009    0.0700
      3 H3         -5.1226    3.6939   49.4358 H       1  ZINC000888733009    0.0700
      4 C4         -5.1271    2.6225   51.3354 C.3     1  ZINC000888733009   -0.1300
      5 C5         -6.2233    1.5609   51.1732 C.3     1  ZINC000888733009   -0.1100
      6 C6         -6.1246    0.3553   52.1044 C.3     1  ZINC000888733009   -0.1300
      7 C7         -7.6624    0.3942   52.1738 C.3     1  ZINC000888733009    0.1200
      8 N8         -8.1950    0.1448   53.5156 N.am    1  ZINC000888733009   -0.7100
      9 C9         -9.5159   -0.0591   53.6892 C.2     1  ZINC000888733009    0.5900
     10 O10       -10.2661   -0.0375   52.7310 O.2     1  ZINC000888733009   -0.5600
     11 C11       -10.0490   -0.3069   55.0320 C.2     1  ZINC000888733009   -0.2400
     12 C12        -9.4777    0.1843   56.1778 C.2     1  ZINC000888733009    0.0800
     13 N13        -8.3371    0.9692   56.2154 N.am    1  ZINC000888733009   -0.6100
     14 C14        -8.4320    2.2826   56.5028 C.2     1  ZINC000888733009    0.6000
     15 O15        -9.5198    2.7786   56.7308 O.2     1  ZINC000888733009   -0.4900
     16 C16        -7.2251    3.1137   56.5409 C.2     1  ZINC000888733009   -0.0900
     17 C17        -7.1775    4.4468   56.8338 C.2     1  ZINC000888733009   -0.1000
     18 C18        -5.8295    4.8296   56.7540 C.2     1  ZINC000888733009   -0.2300
     19 C19        -5.1222    3.7275   56.4201 C.2     1  ZINC000888733009    0.0100
     20 O20        -5.9658    2.6945   56.2983 O.3     1  ZINC000888733009   -0.1600
     21 S21       -10.3644   -0.3033   57.5494 S.3     1  ZINC000888733009    0.3000
     22 C22       -11.5296   -1.1860   56.5788 C.2     1  ZINC000888733009   -0.2800
     23 C23       -11.2371   -1.0906   55.2897 C.2     1  ZINC000888733009   -0.0900
     24 C24        -7.5681    1.8891   51.8166 C.3     1  ZINC000888733009   -0.1400
     25 C25        -6.2589    1.2452   49.6720 C.3     1  ZINC000888733009    0.0700
     26 O26        -4.9482    1.6248   49.1881 O.3     1  ZINC000888733009   -0.3700
     27 H27        -2.7542    3.1894   48.8649 H       1  ZINC000888733009    0.0600
     28 H28        -2.8642    3.9559   50.4676 H       1  ZINC000888733009    0.0700
     29 H29        -2.6093    2.1992   50.3369 H       1  ZINC000888733009    0.0600
     30 H30        -4.3251    2.2510   51.9733 H       1  ZINC000888733009    0.0800
     31 H31        -5.5437    3.5451   51.7397 H       1  ZINC000888733009    0.0800
     32 H32        -5.7308   -0.5393   51.6220 H       1  ZINC000888733009    0.0800
     33 H33        -5.6379    0.5751   53.0546 H       1  ZINC000888733009    0.0900
     34 H34        -8.1488   -0.2087   51.4071 H       1  ZINC000888733009    0.1200
     35 H35        -7.5969    0.1264   54.2791 H       1  ZINC000888733009    0.4000
     36 H36        -7.4700    0.5736   56.0349 H       1  ZINC000888733009    0.4400
     37 H37        -8.0149    5.0833   57.0790 H       1  ZINC000888733009    0.1700
     38 H38        -5.4322    5.8190   56.9266 H       1  ZINC000888733009    0.1600
     39 H39        -4.0523    3.6857   56.2792 H       1  ZINC000888733009    0.2200
     40 H40       -12.3732   -1.7296   56.9776 H       1  ZINC000888733009    0.1700
     41 H41       -11.8219   -1.5576   54.5110 H       1  ZINC000888733009    0.1500
     42 H42        -7.4895    2.5426   52.6854 H       1  ZINC000888733009    0.0900
     43 H43        -8.3253    2.2176   51.1046 H       1  ZINC000888733009    0.0800
     44 H44        -6.4308    0.1809   49.5111 H       1  ZINC000888733009    0.0900
     45 H45        -7.0306    1.8351   49.1775 H       1  ZINC000888733009    0.0700
@<TRIPOS>BOND
     1     1     2    1
     2     1    27    1
     3     1    28    1
     4     1    29    1
     5     2     3    1
     6     2    26    1
     7     2     4    1
     8     4     5    1
     9     4    30    1
    10     4    31    1
    11     5    24    1
    12     5     6    1
    13     5    25    1
    14     6     7    1
    15     6    32    1
    16     6    33    1
    17     7     8    1
    18     7    24    1
    19     7    34    1
    20     8     9   am
    21     8    35    1
    22     9    10    2
    23     9    11    1
    24    11    23    1
    25    11    12    2
    26    12    13    1
    27    12    21    1
    28    13    14   am
    29    13    36    1
    30    14    15    2
    31    14    16    1
    32    16    20    1
    33    16    17    2
    34    17    18    1
    35    17    37    1
    36    18    19    2
    37    18    38    1
    38    19    20    1
    39    19    39    1
    40    21    22    1
    41    22    23    2
    42    22    40    1
    43    23    41    1
    44    24    42    1
    45    24    43    1
    46    25    26    1
    47    25    44    1
    48    25    45    1
@<TRIPOS>SUBSTRUCTURE
     1 ZINC000888733009        1 TEMP              0 ****  ****    0 ROOT


##########                                Name:    ZINC001176298561
##########                DOCK_Rotatable_Bonds:                   6
##########                         Heavy_Atoms:                  23
##########                    Molecular_Weight:             337.781
##########                DOCK_Rotatable_Bonds:                   6
##########                       Formal_Charge:          -0.0100003
##########                     HBond_Acceptors:                   7
##########                        HBond_Donors:                   2
##########                         Heavy_Atoms:                  23
##########                          Grid_Score:          -28.298100
##########                     Grid_vdw_energy:          -28.889187
##########                      Grid_es_energy:            0.591087
##########           Internal_energy_repulsive:           13.939364

@<TRIPOS>MOLECULE
ZINC001176298561
 40 41 1 0 0
SMALL
USER_CHARGES


@<TRIPOS>ATOM
      1 C1        -11.8416    0.8396   52.3613 C.3     1  ZINC001176298561   -0.1700
      2 C2        -11.6735    1.1058   53.8585 C.3     1  ZINC001176298561    0.1100
      3 N3        -11.5780   -0.1693   54.5734 N.am    1  ZINC001176298561   -0.6100
      4 C4        -12.7894   -0.8148   55.0853 C.3     1  ZINC001176298561    0.0900
      5 C5        -12.7561   -0.8216   56.6150 C.3     1  ZINC001176298561   -0.1800
      6 C6        -10.3755   -0.7487   54.7601 C.2     1  ZINC001176298561    0.5600
      7 O7        -10.2962   -1.8067   55.3532 O.2     1  ZINC001176298561   -0.5300
      8 C8         -9.1527   -0.0974   54.2433 C.ar    1  ZINC001176298561   -0.0600
      9 C9         -8.4699    0.8325   55.0288 C.ar    1  ZINC001176298561   -0.1900
     10 C10        -7.3267    1.4403   54.5433 C.ar    1  ZINC001176298561    0.1400
     11 F11        -6.6666    2.3398   55.3050 F       1  ZINC001176298561   -0.1300
     12 C12        -6.8565    1.1291   53.2793 C.ar    1  ZINC001176298561   -0.1800
     13 C13        -7.5309    0.2039   52.4907 C.ar    1  ZINC001176298561    0.2400
     14 N14        -7.0525   -0.1073   51.2159 N.pl3   1  ZINC001176298561   -0.6700
     15 C15        -6.3241    0.8430   50.4902 C.2     1  ZINC001176298561    0.0400
     16 C16        -6.7065    2.1567   50.4915 C.2     1  ZINC001176298561   -0.0300
     17 C17        -5.9587    3.0887   49.7563 C.2     1  ZINC001176298561   -0.1300
     18 Cl18       -6.4264    4.7605   49.7442 Cl      1  ZINC001176298561   -0.0400
     19 C19        -4.8727    2.6851   49.0569 C.2     1  ZINC001176298561    0.1400
     20 N20        -4.4913    1.3788   49.0548 N.am    1  ZINC001176298561   -0.6000
     21 C21        -5.1827    0.4580   49.7531 C.2     1  ZINC001176298561    0.5100
     22 O22        -4.8281   -0.7100   49.7419 O.2     1  ZINC001176298561   -0.5200
     23 C23        -8.6751   -0.4147   52.9719 C.ar    1  ZINC001176298561   -0.1300
     24 H24       -11.9126    1.7883   51.8293 H       1  ZINC001176298561    0.0700
     25 H25       -10.9818    0.2800   51.9929 H       1  ZINC001176298561    0.0600
     26 H26       -12.7502    0.2608   52.1949 H       1  ZINC001176298561    0.0600
     27 H27       -10.7649    1.6845   54.0249 H       1  ZINC001176298561    0.0800
     28 H28       -12.5333    1.6654   54.2269 H       1  ZINC001176298561    0.0900
     29 H29       -13.6663   -0.2650   54.7434 H       1  ZINC001176298561    0.0900
     30 H30       -12.8375   -1.8401   54.7184 H       1  ZINC001176298561    0.0800
     31 H31       -12.3574    0.1272   56.9739 H       1  ZINC001176298561    0.0700
     32 H32       -13.7666   -0.9600   56.9997 H       1  ZINC001176298561    0.0700
     33 H33       -12.1209   -1.6369   56.9610 H       1  ZINC001176298561    0.0600
     34 H34        -8.8345    1.0776   56.0153 H       1  ZINC001176298561    0.1500
     35 H35        -5.9633    1.6067   52.9044 H       1  ZINC001176298561    0.1300
     36 H36        -7.2249   -0.9818   50.8333 H       1  ZINC001176298561    0.4200
     37 H37        -7.5741    2.4726   51.0516 H       1  ZINC001176298561    0.1500
     38 H38        -4.3021    3.4084   48.4933 H       1  ZINC001176298561    0.1800
     39 H39        -3.7102    1.1085   48.5471 H       1  ZINC001176298561    0.4300
     40 H40        -9.2000   -1.1337   52.3603 H       1  ZINC001176298561    0.1400
@<TRIPOS>BOND
     1     1     2    1
     2     1    24    1
     3     1    25    1
     4     1    26    1
     5     2     3    1
     6     2    27    1
     7     2    28    1
     8     3     4    1
     9     3     6   am
    10     4     5    1
    11     4    29    1
    12     4    30    1
    13     5    31    1
    14     5    32    1
    15     5    33    1
    16     6     7    2
    17     6     8    1
    18     8    23   ar
    19     8     9   ar
    20     9    10   ar
    21     9    34    1
    22    10    11    1
    23    10    12   ar
    24    12    13   ar
    25    12    35    1
    26    13    14    1
    27    13    23   ar
    28    14    15    1
    29    14    36    1
    30    15    21    1
    31    15    16    2
    32    16    17    1
    33    16    37    1
    34    17    18    1
    35    17    19    2
    36    19    20    1
    37    19    38    1
    38    20    21   am
    39    20    39    1
    40    21    22    2
    41    23    40    1
@<TRIPOS>SUBSTRUCTURE
     1 ZINC001176298561        1 TEMP              0 ****  ****    0 ROOT


##########                                Name:    ZINC000191003171
##########                DOCK_Rotatable_Bonds:                   6
##########                         Heavy_Atoms:                  26
##########                    Molecular_Weight:             389.414
##########                DOCK_Rotatable_Bonds:                   6
##########                       Formal_Charge:          -0.0200002
##########                     HBond_Acceptors:                   8
##########                        HBond_Donors:                   1
##########                         Heavy_Atoms:                  26
##########                          Grid_Score:          -28.235294
##########                     Grid_vdw_energy:          -28.863277
##########                      Grid_es_energy:            0.627982
##########           Internal_energy_repulsive:           15.193636

@<TRIPOS>MOLECULE
ZINC000191003171
 45 46 1 0 0
SMALL
USER_CHARGES


@<TRIPOS>ATOM
      1 C1        -12.3231    0.0026   59.2884 C.3     1  ZINC000191003171   -0.1200
      2 C2        -12.5750   -1.1858   58.3965 C.ar    1  ZINC000191003171   -0.0800
      3 C3        -13.7045   -1.9607   58.5804 C.ar    1  ZINC000191003171   -0.0700
      4 C4        -13.9357   -3.0509   57.7621 C.ar    1  ZINC000191003171   -0.1800
      5 C5        -15.1671   -3.8961   57.9629 C.3     1  ZINC000191003171    0.5100
      6 F6        -15.5203   -3.8914   59.3166 F       1  ZINC000191003171   -0.1800
      7 F7        -16.2200   -3.3738   57.2043 F       1  ZINC000191003171   -0.1800
      8 F8        -14.9039   -5.2081   57.5542 F       1  ZINC000191003171   -0.1800
      9 C9        -13.0377   -3.3653   56.7596 C.ar    1  ZINC000191003171   -0.0800
     10 C10       -11.9080   -2.5898   56.5754 C.ar    1  ZINC000191003171   -0.1000
     11 C11       -11.6791   -1.4974   57.3906 C.ar    1  ZINC000191003171   -0.0500
     12 C12       -10.4478   -0.6522   57.1898 C.3     1  ZINC000191003171    0.0900
     13 N13       -10.0430   -0.7041   55.7786 N.3     1  ZINC000191003171   -0.6800
     14 C14       -10.2311    0.5998   55.1286 C.3     1  ZINC000191003171    0.1200
     15 H15       -10.0132    1.3956   55.8408 H       1  ZINC000191003171    0.0600
     16 C16       -11.6786    0.7266   54.6494 C.3     1  ZINC000191003171   -0.1400
     17 C17        -9.2999    0.7122   53.9492 C.ar    1  ZINC000191003171   -0.0100
     18 C18        -8.9769   -0.4131   53.2142 C.ar    1  ZINC000191003171   -0.1300
     19 C19        -8.1227   -0.3114   52.1318 C.ar    1  ZINC000191003171    0.0100
     20 C20        -7.5906    0.9154   51.7837 C.ar    1  ZINC000191003171   -0.7000
     21 S21        -6.5019    1.0444   50.4042 S.o2    1  ZINC000191003171    2.5000
     22 C22        -4.9187    1.5606   51.1238 C.3     1  ZINC000191003171   -0.6500
     23 O23        -6.4129   -0.2822   49.9029 O.2     1  ZINC000191003171   -0.9300
     24 O24        -7.0562    2.0894   49.6169 O.2     1  ZINC000191003171   -0.9300
     25 C25        -7.9137    2.0434   52.5190 C.ar    1  ZINC000191003171    0.1900
     26 F26        -7.3941    3.2435   52.1796 F       1  ZINC000191003171   -0.1200
     27 C27        -8.7733    1.9413   53.5994 C.ar    1  ZINC000191003171   -0.1700
     28 H28       -12.7847    0.8885   58.8524 H       1  ZINC000191003171    0.0800
     29 H29       -12.7530   -0.1841   60.2725 H       1  ZINC000191003171    0.0800
     30 H30       -11.2493    0.1628   59.3854 H       1  ZINC000191003171    0.0600
     31 H31       -14.4065   -1.7148   59.3635 H       1  ZINC000191003171    0.1400
     32 H32       -13.2182   -4.2169   56.1205 H       1  ZINC000191003171    0.1400
     33 H33       -11.2061   -2.8357   55.7922 H       1  ZINC000191003171    0.1400
     34 H34       -10.6656    0.3790   57.4676 H       1  ZINC000191003171    0.0900
     35 H35        -9.6395   -1.0336   57.8139 H       1  ZINC000191003171    0.0500
     36 H36        -9.0887   -1.0192   55.6875 H       1  ZINC000191003171    0.3500
     37 H37       -11.8183    1.6941   54.1671 H       1  ZINC000191003171    0.0600
     38 H38       -11.8966   -0.0693   53.9372 H       1  ZINC000191003171    0.0700
     39 H39       -12.3522    0.6453   55.5025 H       1  ZINC000191003171    0.0600
     40 H40        -9.3920   -1.3724   53.4858 H       1  ZINC000191003171    0.1500
     41 H41        -7.8708   -1.1913   51.5584 H       1  ZINC000191003171    0.1600
     42 H42        -4.5825    0.8096   51.8387 H       1  ZINC000191003171    0.1300
     43 H43        -4.1770    1.6663   50.3321 H       1  ZINC000191003171    0.1400
     44 H44        -5.0454    2.5160   51.6330 H       1  ZINC000191003171    0.1300
     45 H45        -9.0264    2.8205   54.1733 H       1  ZINC000191003171    0.1500
@<TRIPOS>BOND
     1     1     2    1
     2     1    28    1
     3     1    29    1
     4     1    30    1
     5     2    11   ar
     6     2     3   ar
     7     3     4   ar
     8     3    31    1
     9     4     5    1
    10     4     9   ar
    11     5     6    1
    12     5     7    1
    13     5     8    1
    14     9    10   ar
    15     9    32    1
    16    10    11   ar
    17    10    33    1
    18    11    12    1
    19    12    13    1
    20    12    34    1
    21    12    35    1
    22    13    14    1
    23    13    36    1
    24    14    15    1
    25    14    16    1
    26    14    17    1
    27    16    37    1
    28    16    38    1
    29    16    39    1
    30    17    27   ar
    31    17    18   ar
    32    18    19   ar
    33    18    40    1
    34    19    20   ar
    35    19    41    1
    36    20    21    1
    37    20    25   ar
    38    21    22    1
    39    21    23    2
    40    21    24    2
    41    22    42    1
    42    22    43    1
    43    22    44    1
    44    25    26    1
    45    25    27   ar
    46    27    45    1
@<TRIPOS>SUBSTRUCTURE
     1 ZINC000191003171        1 TEMP              0 ****  ****    0 ROOT


##########                                Name:    ZINC000966038509
##########                DOCK_Rotatable_Bonds:                   5
##########                         Heavy_Atoms:                  25
##########                    Molecular_Weight:             346.445
##########                DOCK_Rotatable_Bonds:                   5
##########                       Formal_Charge:           0.0299998
##########                     HBond_Acceptors:                   5
##########                        HBond_Donors:                   1
##########                         Heavy_Atoms:                  25
##########                          Grid_Score:          -28.207514
##########                     Grid_vdw_energy:          -27.728453
##########                      Grid_es_energy:           -0.479061
##########           Internal_energy_repulsive:           17.383295

@<TRIPOS>MOLECULE
ZINC000966038509
 52 54 1 0 0
SMALL
USER_CHARGES


@<TRIPOS>ATOM
      1 C1         -8.8160   -0.0556   52.1572 C.3     1  ZINC000966038509   -0.1200
      2 C2         -7.4464    0.4674   51.8080 C.ar    1  ZINC000966038509   -0.0100
      3 C3         -6.7118   -0.1341   50.8089 C.ar    1  ZINC000966038509   -0.1600
      4 C4         -5.4513    0.3457   50.4871 C.ar    1  ZINC000966038509    0.1300
      5 F5         -4.7352   -0.2478   49.5072 F       1  ZINC000966038509   -0.1300
      6 C6         -4.9234    1.4327   51.1668 C.ar    1  ZINC000966038509   -0.1600
      7 C7         -5.6495    2.0417   52.1677 C.ar    1  ZINC000966038509   -0.0100
      8 C8         -5.0742    3.2228   52.9061 C.3     1  ZINC000966038509   -0.1200
      9 C9         -6.9217    1.5658   52.4924 C.ar    1  ZINC000966038509   -0.1500
     10 C10        -7.7045    2.2145   53.5641 C.2     1  ZINC000966038509    0.5700
     11 O11        -8.3028    3.2486   53.3391 O.2     1  ZINC000966038509   -0.5200
     12 N12        -7.7556    1.6599   54.7915 N.am    1  ZINC000966038509   -0.7100
     13 C13        -8.5333    2.3023   55.8537 C.3     1  ZINC000966038509    0.1300
     14 H14        -8.9070    3.2733   55.5289 H       1  ZINC000966038509    0.1200
     15 C15        -9.6938    1.3892   56.3221 C.3     1  ZINC000966038509    0.0900
     16 N16        -9.0696    0.4354   57.2572 N.am    1  ZINC000966038509   -0.6200
     17 C17        -9.5408   -0.7906   57.5596 C.2     1  ZINC000966038509    0.5400
     18 O18        -8.9421   -1.4934   58.3459 O.2     1  ZINC000966038509   -0.5300
     19 C19       -10.8117   -1.2880   56.9206 C.3     1  ZINC000966038509   -0.1100
     20 C20       -11.0729   -2.7641   57.3104 C.3     1  ZINC000966038509   -0.1100
     21 C21       -12.6033   -2.9032   57.1171 C.3     1  ZINC000966038509   -0.1200
     22 C22       -13.1704   -1.5543   57.6058 C.3     1  ZINC000966038509   -0.1200
     23 C23       -12.0313   -0.5273   57.4808 C.3     1  ZINC000966038509   -0.1100
     24 C24        -7.8478    1.0429   57.8045 C.3     1  ZINC000966038509    0.1000
     25 C25        -7.6961    2.4349   57.1534 C.3     1  ZINC000966038509   -0.1100
     26 H26        -8.1075    3.2101   57.8000 H       1  ZINC000966038509    0.1000
     27 C27        -6.2289    2.7245   56.8304 C.3     1  ZINC000966038509   -0.1400
     28 H28        -9.5645    0.4505   51.5474 H       1  ZINC000966038509    0.0800
     29 H29        -8.8553   -1.1278   51.9652 H       1  ZINC000966038509    0.0800
     30 H30        -9.0187    0.1324   53.2116 H       1  ZINC000966038509    0.0700
     31 H31        -7.1184   -0.9810   50.2761 H       1  ZINC000966038509    0.1400
     32 H32        -3.9413    1.8027   50.9120 H       1  ZINC000966038509    0.1400
     33 H33        -5.3541    4.1431   52.3936 H       1  ZINC000966038509    0.0800
     34 H34        -5.4646    3.2403   53.9236 H       1  ZINC000966038509    0.0700
     35 H35        -3.9878    3.1390   52.9351 H       1  ZINC000966038509    0.0800
     36 H36        -7.2772    0.8355   54.9713 H       1  ZINC000966038509    0.4000
     37 H37       -10.4566    1.9769   56.8325 H       1  ZINC000966038509    0.0800
     38 H38       -10.1263    0.8599   55.4730 H       1  ZINC000966038509    0.0800
     39 H39       -10.7602   -1.1809   55.8370 H       1  ZINC000966038509    0.0900
     40 H40       -10.5364   -3.4402   56.6446 H       1  ZINC000966038509    0.0700
     41 H41       -10.7967   -2.9439   58.3494 H       1  ZINC000966038509    0.0700
     42 H42       -12.8425   -3.0588   56.0651 H       1  ZINC000966038509    0.0700
     43 H43       -12.9915   -3.7221   57.7227 H       1  ZINC000966038509    0.0700
     44 H44       -14.0128   -1.2553   56.9820 H       1  ZINC000966038509    0.0700
     45 H45       -13.4863   -1.6368   58.6458 H       1  ZINC000966038509    0.0700
     46 H46       -11.7943   -0.1116   58.4602 H       1  ZINC000966038509    0.0800
     47 H47       -12.3208    0.2699   56.7963 H       1  ZINC000966038509    0.0700
     48 H48        -7.9381    1.1474   58.8857 H       1  ZINC000966038509    0.0800
     49 H49        -6.9846    0.4236   57.5607 H       1  ZINC000966038509    0.0700
     50 H50        -5.8459    1.9553   56.1598 H       1  ZINC000966038509    0.0600
     51 H51        -6.1484    3.6991   56.3489 H       1  ZINC000966038509    0.0700
     52 H52        -5.6473    2.7254   57.7522 H       1  ZINC000966038509    0.0700
@<TRIPOS>BOND
     1     1     2    1
     2     1    28    1
     3     1    29    1
     4     1    30    1
     5     2     9   ar
     6     2     3   ar
     7     3     4   ar
     8     3    31    1
     9     4     5    1
    10     4     6   ar
    11     6     7   ar
    12     6    32    1
    13     7     8    1
    14     7     9   ar
    15     8    33    1
    16     8    34    1
    17     8    35    1
    18     9    10    1
    19    10    11    2
    20    10    12   am
    21    12    13    1
    22    12    36    1
    23    13    14    1
    24    13    25    1
    25    13    15    1
    26    15    16    1
    27    15    37    1
    28    15    38    1
    29    16    17   am
    30    16    24    1
    31    17    18    2
    32    17    19    1
    33    19    23    1
    34    19    20    1
    35    19    39    1
    36    20    21    1
    37    20    40    1
    38    20    41    1
    39    21    22    1
    40    21    42    1
    41    21    43    1
    42    22    23    1
    43    22    44    1
    44    22    45    1
    45    23    46    1
    46    23    47    1
    47    24    25    1
    48    24    48    1
    49    24    49    1
    50    25    26    1
    51    25    27    1
    52    27    50    1
    53    27    51    1
    54    27    52    1
@<TRIPOS>SUBSTRUCTURE
     1 ZINC000966038509        1 TEMP              0 ****  ****    0 ROOT


##########                                Name:    ZINC000444542200
##########                DOCK_Rotatable_Bonds:                   8
##########                         Heavy_Atoms:                  28
##########                    Molecular_Weight:             404.337
##########                DOCK_Rotatable_Bonds:                   8
##########                       Formal_Charge:           0.0200001
##########                     HBond_Acceptors:                  10
##########                        HBond_Donors:                   1
##########                         Heavy_Atoms:                  28
##########                          Grid_Score:          -28.203678
##########                     Grid_vdw_energy:          -26.888784
##########                      Grid_es_energy:           -1.314894
##########           Internal_energy_repulsive:           20.215267

@<TRIPOS>MOLECULE
ZINC000444542200
 45 46 1 0 0
SMALL
USER_CHARGES


@<TRIPOS>ATOM
      1 C1         -8.2078    5.0278   48.7542 C.3     1  ZINC000444542200    0.0300
      2 O2         -6.9420    5.4205   49.2887 O.3     1  ZINC000444542200   -0.3100
      3 C3         -6.2077    4.4580   49.9061 C.ar    1  ZINC000444542200    0.1800
      4 C4         -6.7201    3.1771   50.0443 C.ar    1  ZINC000444542200   -0.1700
      5 C5         -5.9697    2.1940   50.6746 C.ar    1  ZINC000444542200    0.2300
      6 N6         -6.4861    0.9009   50.8138 N.am    1  ZINC000444542200   -0.5800
      7 C7         -5.9002   -0.2074   50.0557 C.3     1  ZINC000444542200    0.0700
      8 C8         -7.5223    0.6750   51.6454 C.2     1  ZINC000444542200    0.7100
      9 O9         -7.9712   -0.4486   51.7662 O.2     1  ZINC000444542200   -0.5500
     10 N10        -8.0613    1.6945   52.3429 N.am    1  ZINC000444542200   -0.7300
     11 C11        -9.1866    1.4487   53.2482 C.3     1  ZINC000444542200    0.1700
     12 H12        -9.6843    0.5210   52.9656 H       1  ZINC000444542200    0.1500
     13 C13        -8.6782    1.3354   54.6623 C.ar    1  ZINC000444542200   -0.1300
     14 C14        -7.6017    2.0988   55.0728 C.ar    1  ZINC000444542200   -0.0800
     15 C15        -7.1340    1.9960   56.3698 C.ar    1  ZINC000444542200   -0.0900
     16 C16        -7.7421    1.1297   57.2587 C.ar    1  ZINC000444542200   -0.1100
     17 C17        -8.8203    0.3637   56.8506 C.ar    1  ZINC000444542200    0.0800
     18 F18        -9.4152   -0.4833   57.7188 F       1  ZINC000444542200   -0.1200
     19 C19        -9.2929    0.4710   55.5516 C.ar    1  ZINC000444542200    0.1000
     20 F20       -10.3453   -0.2755   55.1510 F       1  ZINC000444542200   -0.1100
     21 C21       -10.1794    2.6091   53.1545 C.3     1  ZINC000444542200    0.4400
     22 F22       -10.7830    2.8083   54.4007 F       1  ZINC000444542200   -0.1600
     23 F23        -9.5022    3.7724   52.7731 F       1  ZINC000444542200   -0.1700
     24 F24       -11.1606    2.3078   52.2039 F       1  ZINC000444542200   -0.1800
     25 C25        -4.7068    2.4942   51.1663 C.ar    1  ZINC000444542200   -0.1900
     26 C26        -4.1957    3.7755   51.0276 C.ar    1  ZINC000444542200    0.1800
     27 O27        -2.9593    4.0694   51.5090 O.3     1  ZINC000444542200   -0.3100
     28 C28        -2.2652    3.0257   52.1951 C.3     1  ZINC000444542200    0.0300
     29 C29        -4.9437    4.7558   50.3930 C.ar    1  ZINC000444542200   -0.2900
     30 H30        -8.0606    4.2475   48.0075 H       1  ZINC000444542200    0.0600
     31 H31        -8.8392    4.6477   49.5573 H       1  ZINC000444542200    0.0600
     32 H32        -8.6891    5.8887   48.2901 H       1  ZINC000444542200    0.1000
     33 H33        -7.7028    2.9444   49.6617 H       1  ZINC000444542200    0.1300
     34 H34        -5.0980   -0.6615   50.6375 H       1  ZINC000444542200    0.0700
     35 H35        -6.6680   -0.9535   49.8510 H       1  ZINC000444542200    0.0700
     36 H36        -5.4987    0.1684   49.1146 H       1  ZINC000444542200    0.0900
     37 H37        -7.7041    2.5911   52.2456 H       1  ZINC000444542200    0.4100
     38 H38        -7.1251    2.7761   54.3797 H       1  ZINC000444542200    0.1400
     39 H39        -6.2925    2.5931   56.6887 H       1  ZINC000444542200    0.1500
     40 H40        -7.3756    1.0499   58.2714 H       1  ZINC000444542200    0.1500
     41 H41        -4.1227    1.7298   51.6573 H       1  ZINC000444542200    0.1400
     42 H42        -2.1241    2.1798   51.5223 H       1  ZINC000444542200    0.0600
     43 H43        -1.2936    3.3923   52.5266 H       1  ZINC000444542200    0.1000
     44 H44        -2.8483    2.7089   53.0598 H       1  ZINC000444542200    0.0600
     45 H45        -4.5451    5.7538   50.2852 H       1  ZINC000444542200    0.1400
@<TRIPOS>BOND
     1     1     2    1
     2     1    30    1
     3     1    31    1
     4     1    32    1
     5     2     3    1
     6     3    29   ar
     7     3     4   ar
     8     4     5   ar
     9     4    33    1
    10     5     6    1
    11     5    25   ar
    12     6     7    1
    13     6     8   am
    14     7    34    1
    15     7    35    1
    16     7    36    1
    17     8     9    2
    18     8    10   am
    19    10    11    1
    20    10    37    1
    21    11    12    1
    22    11    13    1
    23    11    21    1
    24    13    19   ar
    25    13    14   ar
    26    14    15   ar
    27    14    38    1
    28    15    16   ar
    29    15    39    1
    30    16    17   ar
    31    16    40    1
    32    17    18    1
    33    17    19   ar
    34    19    20    1
    35    21    22    1
    36    21    23    1
    37    21    24    1
    38    25    26   ar
    39    25    41    1
    40    26    27    1
    41    26    29   ar
    42    27    28    1
    43    28    42    1
    44    28    43    1
    45    28    44    1
    46    29    45    1
@<TRIPOS>SUBSTRUCTURE
     1 ZINC000444542200        1 TEMP              0 ****  ****    0 ROOT


##########                                Name:    ZINC000013551438
##########                DOCK_Rotatable_Bonds:                   5
##########                         Heavy_Atoms:                  27
##########                    Molecular_Weight:             377.467
##########                DOCK_Rotatable_Bonds:                   5
##########                       Formal_Charge:          -0.0300005
##########                     HBond_Acceptors:                   6
##########                        HBond_Donors:                   1
##########                         Heavy_Atoms:                  27
##########                          Grid_Score:          -28.197479
##########                     Grid_vdw_energy:          -28.220833
##########                      Grid_es_energy:            0.023353
##########           Internal_energy_repulsive:            6.251898

@<TRIPOS>MOLECULE
ZINC000013551438
 46 49 1 0 0
SMALL
USER_CHARGES


@<TRIPOS>ATOM
      1 C1          2.5640   -0.0655   47.8014 C.3     1  <0>         0.0300
      2 O2          2.8509   -0.4070   49.1590 O.3     1  <0>        -0.3200
      3 C3          2.7827    0.5955   50.0754 C.ar    1  <0>         0.1000
      4 C4          3.9161    0.9492   50.8021 C.ar    1  <0>        -0.1800
      5 C5          3.8637    1.9620   51.7338 C.ar    1  <0>        -0.0900
      6 C6          2.6705    2.6419   51.9557 C.ar    1  <0>         0.0700
      7 C7          1.5254    2.2865   51.2228 C.ar    1  <0>        -0.0400
      8 C8          1.5904    1.2630   50.2780 C.ar    1  <0>        -0.1100
      9 C9          0.4513    3.1789   51.6869 C.2     1  <0>        -0.1200
     10 C10        -0.9541    3.1937   51.2120 C.2     1  <0>         0.1700
     11 C11        -1.3212    3.7218   50.0293 C.2     1  <0>        -0.3000
     12 S12        -3.0645    3.5300   49.8644 S.3     1  <0>         0.2500
     13 C13        -3.1393    2.7627   51.3898 C.2     1  <0>         0.2400
     14 N14        -4.3020    2.2868   51.9810 N.am    1  <0>        -0.6200
     15 C15        -5.0477    1.3585   51.3498 C.2     1  <0>         0.5600
     16 O16        -4.7015    0.9367   50.2634 O.2     1  <0>        -0.5000
     17 C17        -6.2862    0.8531   51.9783 C.ar    1  <0>        -0.1400
     18 C18        -6.6564    1.2925   53.2505 C.ar    1  <0>        -0.0800
     19 C19        -7.8140    0.8173   53.8313 C.ar    1  <0>        -0.1300
     20 C20        -8.6073   -0.0929   53.1556 C.ar    1  <0>        -0.0800
     21 C21        -8.2460   -0.5329   51.8946 C.ar    1  <0>        -0.1300
     22 C22        -7.0940   -0.0612   51.2999 C.ar    1  <0>        -0.0500
     23 N23        -1.9577    2.6824   51.9135 N.2     1  <0>        -0.5000
     24 C24         0.9933    3.9837   52.6317 C.2     1  <0>         0.1300
     25 C25         0.2521    5.0585   53.3843 C.3     1  <0>        -0.0900
     26 N26         2.3147    3.6731   52.8005 N.pl3   1  <0>        -0.4800
     27 C27         3.2197    4.3376   53.7415 C.3     1  <0>         0.0800
     28 H28         3.2700    0.6917   47.4602 H       1  <0>         0.0500
     29 H29         2.6540   -0.9541   47.1764 H       1  <0>         0.1000
     30 H30         1.5492    0.3263   47.7320 H       1  <0>         0.0500
     31 H31         4.8449    0.4243   50.6339 H       1  <0>         0.1300
     32 H32         4.7489    2.2283   52.2924 H       1  <0>         0.1200
     33 H33         0.7115    0.9882   49.7136 H       1  <0>         0.1300
     34 H34        -0.6624    4.1824   49.3080 H       1  <0>         0.1800
     35 H35        -4.5775    2.6224   52.8484 H       1  <0>         0.4200
     36 H36        -6.0378    2.0026   53.7792 H       1  <0>         0.1300
     37 H37        -8.1013    1.1561   54.8157 H       1  <0>         0.1300
     38 H38        -9.5126   -0.4618   53.6148 H       1  <0>         0.1300
     39 H39        -8.8696   -1.2437   51.3726 H       1  <0>         0.1300
     40 H40        -6.8133   -0.4051   50.3154 H       1  <0>         0.1400
     41 H41        -0.1023    4.6584   54.3343 H       1  <0>         0.0800
     42 H42         0.9210    5.8986   53.5708 H       1  <0>         0.0700
     43 H43        -0.5986    5.3959   52.7922 H       1  <0>         0.0800
     44 H44         3.1911    3.8199   54.7003 H       1  <0>         0.0700
     45 H45         4.2354    4.3149   53.3465 H       1  <0>         0.0800
     46 H46         2.9060    5.3725   53.8780 H       1  <0>         0.0800
@<TRIPOS>BOND
     1     1     2    1
     2     1    28    1
     3     1    29    1
     4     1    30    1
     5     2     3    1
     6     3     8   ar
     7     3     4   ar
     8     4     5   ar
     9     4    31    1
    10     5     6   ar
    11     5    32    1
    12     6    26    1
    13     6     7   ar
    14     7     8   ar
    15     7     9    1
    16     8    33    1
    17     9    10    1
    18     9    24    2
    19    10    23    1
    20    10    11    2
    21    11    12    1
    22    11    34    1
    23    12    13    1
    24    13    14    1
    25    13    23    2
    26    14    15   am
    27    14    35    1
    28    15    16    2
    29    15    17    1
    30    17    22   ar
    31    17    18   ar
    32    18    19   ar
    33    18    36    1
    34    19    20   ar
    35    19    37    1
    36    20    21   ar
    37    20    38    1
    38    21    22   ar
    39    21    39    1
    40    22    40    1
    41    24    25    1
    42    24    26    1
    43    25    41    1
    44    25    42    1
    45    25    43    1
    46    26    27    1
    47    27    44    1
    48    27    45    1
    49    27    46    1
@<TRIPOS>SUBSTRUCTURE
     1 <0>         1 TEMP              0 ****  ****    0 ROOT


##########                                Name:    ZINC000194290865
##########                DOCK_Rotatable_Bonds:                   7
##########                         Heavy_Atoms:                  28
##########                    Molecular_Weight:             387.479
##########                DOCK_Rotatable_Bonds:                   7
##########                       Formal_Charge:          -0.0400003
##########                     HBond_Acceptors:                   7
##########                        HBond_Donors:                   0
##########                         Heavy_Atoms:                  28
##########                          Grid_Score:          -28.196255
##########                     Grid_vdw_energy:          -29.028881
##########                      Grid_es_energy:            0.832626
##########           Internal_energy_repulsive:           39.589195

@<TRIPOS>MOLECULE
ZINC000194290865
 57 59 1 0 0
SMALL
USER_CHARGES


@<TRIPOS>ATOM
      1 C1         -8.1528   -0.0889   66.1328 C.3     1  ZINC000194290865   -0.1500
      2 C2         -8.2921    0.2563   64.6488 C.3     1  ZINC000194290865    0.0600
      3 O3         -9.0568    1.4824   64.5067 O.3     1  ZINC000194290865   -0.3600
      4 C4         -9.0488    2.0692   63.2995 C.2     1  ZINC000194290865    0.4700
      5 O5         -8.4976    3.1339   63.1490 O.2     1  ZINC000194290865   -0.4900
      6 C6         -9.7273    1.4003   62.1319 C.3     1  ZINC000194290865   -0.0600
      7 C7        -11.0035    0.6938   62.5934 C.3     1  ZINC000194290865   -0.0700
      8 C8        -12.0037    1.7314   63.1071 C.3     1  ZINC000194290865   -0.1700
      9 C9        -11.6180   -0.0685   61.4178 C.3     1  ZINC000194290865   -0.1600
     10 C10       -10.0527    2.4383   61.0331 C.3     1  ZINC000194290865   -0.1200
     11 C11        -8.8636    2.2849   60.0517 C.3     1  ZINC000194290865    0.0900
     12 N12        -8.6003    0.8274   60.0624 N.am    1  ZINC000194290865   -0.6100
     13 C13        -8.2703    0.0543   59.0088 C.2     1  ZINC000194290865    0.5800
     14 O14        -8.0814   -1.1361   59.1641 O.2     1  ZINC000194290865   -0.5000
     15 C15        -8.1380    0.6553   57.6627 C.ar    1  ZINC000194290865    0.0100
     16 C16        -9.1076    0.4297   56.6668 C.ar    1  ZINC000194290865   -0.2200
     17 C17        -8.9436    1.0193   55.4015 C.ar    1  ZINC000194290865    0.3000
     18 N18        -7.8862    1.7776   55.1556 N.ar    1  ZINC000194290865   -0.4700
     19 C19        -6.9642    2.0060   56.0663 C.ar    1  ZINC000194290865    0.2100
     20 C20        -5.7872    2.8798   55.7169 C.3     1  ZINC000194290865   -0.1100
     21 C21        -7.0516    1.4684   57.3403 C.ar    1  ZINC000194290865   -0.1800
     22 O22       -10.0009    0.6424   54.6545 O.3     1  ZINC000194290865   -0.0800
     23 N23       -10.8487   -0.1860   55.4240 N.2     1  ZINC000194290865   -0.2600
     24 C24       -10.3540   -0.3334   56.6152 C.2     1  ZINC000194290865    0.1600
     25 C25       -10.9533   -1.1418   57.7370 C.3     1  ZINC000194290865   -0.0400
     26 C26       -12.4600   -0.8848   57.8026 C.3     1  ZINC000194290865   -0.1500
     27 C27       -10.7001   -2.6296   57.4853 C.3     1  ZINC000194290865   -0.1400
     28 C28        -8.7718    0.3953   61.4621 C.3     1  ZINC000194290865    0.1200
     29 H29        -7.6378    0.7222   66.6476 H       1  ZINC000194290865    0.0700
     30 H30        -9.1425   -0.2254   66.5685 H       1  ZINC000194290865    0.0700
     31 H31        -7.5787   -1.0094   66.2393 H       1  ZINC000194290865    0.0800
     32 H32        -7.3023    0.3928   64.2130 H       1  ZINC000194290865    0.0700
     33 H33        -8.8071   -0.5548   64.1339 H       1  ZINC000194290865    0.0700
     34 H34       -10.7623   -0.0058   63.3938 H       1  ZINC000194290865    0.0900
     35 H35       -11.5659    2.2745   63.9447 H       1  ZINC000194290865    0.0500
     36 H36       -12.2448    2.4310   62.3067 H       1  ZINC000194290865    0.0800
     37 H37       -12.9129    1.2281   63.4359 H       1  ZINC000194290865    0.0600
     38 H38       -10.9055   -0.8078   61.0518 H       1  ZINC000194290865    0.0500
     39 H39       -12.5272   -0.5720   61.7465 H       1  ZINC000194290865    0.0600
     40 H40       -11.8591    0.6310   60.6173 H       1  ZINC000194290865    0.0800
     41 H41       -10.9941    2.1961   60.5399 H       1  ZINC000194290865    0.0900
     42 H42       -10.0818    3.4451   61.4498 H       1  ZINC000194290865    0.0900
     43 H43        -9.1443    2.6177   59.0524 H       1  ZINC000194290865    0.0900
     44 H44        -7.9944    2.8355   60.4114 H       1  ZINC000194290865    0.0900
     45 H45        -6.0231    3.9178   55.9512 H       1  ZINC000194290865    0.0900
     46 H46        -4.9175    2.5657   56.2939 H       1  ZINC000194290865    0.0900
     47 H47        -5.5698    2.7880   54.6527 H       1  ZINC000194290865    0.0900
     48 H48        -6.2833    1.6695   58.0721 H       1  ZINC000194290865    0.1600
     49 H49       -10.4934   -0.8497   58.6812 H       1  ZINC000194290865    0.1100
     50 H50       -12.9199   -1.1769   56.8585 H       1  ZINC000194290865    0.0700
     51 H51       -12.8935   -1.4695   58.6140 H       1  ZINC000194290865    0.0700
     52 H52       -12.6404    0.1751   57.9820 H       1  ZINC000194290865    0.0600
     53 H53        -9.6266   -2.8127   57.4386 H       1  ZINC000194290865    0.0600
     54 H54       -11.1334   -3.2142   58.2967 H       1  ZINC000194290865    0.0700
     55 H55       -11.1598   -2.9217   56.5412 H       1  ZINC000194290865    0.0600
     56 H56        -7.8090    0.4012   61.9730 H       1  ZINC000194290865    0.0800
     57 H57        -9.2046   -0.6047   61.4914 H       1  ZINC000194290865    0.1000
@<TRIPOS>BOND
     1     1     2    1
     2     1    29    1
     3     1    30    1
     4     1    31    1
     5     2     3    1
     6     2    32    1
     7     2    33    1
     8     3     4    1
     9     4     5    2
    10     4     6    1
    11     6    28    1
    12     6     7    1
    13     6    10    1
    14     7     8    1
    15     7     9    1
    16     7    34    1
    17     8    35    1
    18     8    36    1
    19     8    37    1
    20     9    38    1
    21     9    39    1
    22     9    40    1
    23    10    11    1
    24    10    41    1
    25    10    42    1
    26    11    12    1
    27    11    43    1
    28    11    44    1
    29    12    13   am
    30    12    28    1
    31    13    14    2
    32    13    15    1
    33    15    21   ar
    34    15    16   ar
    35    16    24    1
    36    16    17   ar
    37    17    18   ar
    38    17    22    1
    39    18    19   ar
    40    19    20    1
    41    19    21   ar
    42    20    45    1
    43    20    46    1
    44    20    47    1
    45    21    48    1
    46    22    23    1
    47    23    24    2
    48    24    25    1
    49    25    26    1
    50    25    27    1
    51    25    49    1
    52    26    50    1
    53    26    51    1
    54    26    52    1
    55    27    53    1
    56    27    54    1
    57    27    55    1
    58    28    56    1
    59    28    57    1
@<TRIPOS>SUBSTRUCTURE
     1 ZINC000194290865        1 TEMP              0 ****  ****    0 ROOT


##########                                Name:    ZINC000286156371
##########                DOCK_Rotatable_Bonds:                   7
##########                         Heavy_Atoms:                  25
##########                    Molecular_Weight:             350.418
##########                DOCK_Rotatable_Bonds:                   7
##########                       Formal_Charge:          0.00999908
##########                     HBond_Acceptors:                   8
##########                        HBond_Donors:                   2
##########                         Heavy_Atoms:                  25
##########                          Grid_Score:          -28.145784
##########                     Grid_vdw_energy:          -27.848980
##########                      Grid_es_energy:           -0.296805
##########           Internal_energy_repulsive:           14.619031

@<TRIPOS>MOLECULE
ZINC000286156371
 51 53 1 0 0
SMALL
USER_CHARGES


@<TRIPOS>ATOM
      1 C1         -4.9219    6.2272   53.1318 C.3     1  <0>        -0.1800
      2 C2         -5.5784    5.0509   53.8575 C.3     1  <0>         0.1400
      3 C3         -4.5547    3.9285   54.0395 C.3     1  <0>        -0.1800
      4 C4         -6.0785    5.5122   55.2278 C.3     1  <0>        -0.1400
      5 O5         -6.6981    4.5623   53.0728 O.3     1  <0>        -0.3600
      6 C6         -6.4059    3.8593   51.9624 C.2     1  <0>         0.6800
      7 O7         -5.9697    4.4276   50.9809 O.2     1  <0>        -0.5600
      8 N8         -6.5971    2.5254   51.9393 N.am    1  <0>        -0.5800
      9 C9         -7.1176    1.7127   53.0538 C.3     1  <0>         0.0700
     10 C10        -7.7219    0.4557   52.3796 C.3     1  <0>         0.0900
     11 H11        -7.7374   -0.3881   53.0693 H       1  <0>         0.0900
     12 O12        -9.0311    0.7251   51.8743 O.3     1  <0>        -0.5500
     13 C13        -6.7179    0.2099   51.2224 C.3     1  <0>        -0.1200
     14 C14        -6.3276    1.6408   50.7964 C.3     1  <0>         0.1500
     15 H15        -6.9227    1.9466   49.9360 H       1  <0>         0.1100
     16 C16        -4.8619    1.6903   50.4494 C.2     1  <0>         0.5200
     17 O17        -4.0482    1.1615   51.1770 O.2     1  <0>        -0.4900
     18 N18        -4.4553    2.3222   49.3305 N.am    1  <0>        -0.6300
     19 C19        -3.0923    2.3669   49.0069 C.2     1  <0>         0.3000
     20 N20        -2.5479    1.9198   47.8978 N.2     1  <0>        -0.3200
     21 N21        -1.1725    2.1532   47.9648 N.pl3   1  <0>        -0.3600
     22 C22        -0.1620    1.8238   46.9548 C.3     1  <0>         0.1400
     23 C23         1.1077    2.6308   47.2452 C.3     1  <0>        -0.1400
     24 C24         1.5013    2.4559   48.7149 C.3     1  <0>        -0.1300
     25 C25         0.4713    3.1685   49.6012 C.3     1  <0>        -0.0600
     26 C26        -0.9069    2.7532   49.1484 C.2     1  <0>         0.0900
     27 C27        -2.0707    2.9033   49.8098 C.2     1  <0>        -0.2600
     28 H28        -4.5655    5.8986   52.1555 H       1  <0>         0.0900
     29 H29        -5.6512    7.0268   53.0022 H       1  <0>         0.0600
     30 H30        -4.0813    6.5940   53.7209 H       1  <0>         0.0700
     31 H31        -3.7142    4.2953   54.6285 H       1  <0>         0.0700
     32 H32        -5.0224    3.0906   54.5565 H       1  <0>         0.0600
     33 H33        -4.1983    3.5999   53.0632 H       1  <0>         0.0900
     34 H34        -6.8079    6.3118   55.0982 H       1  <0>         0.0700
     35 H35        -6.5462    4.6743   55.7448 H       1  <0>         0.0700
     36 H36        -5.2380    5.8791   55.8169 H       1  <0>         0.0800
     37 H37        -6.3084    1.4300   53.7272 H       1  <0>         0.0800
     38 H38        -7.8888    2.2606   53.5951 H       1  <0>         0.0900
     39 H39        -9.1015    0.6639   50.9117 H       1  <0>         0.3900
     40 H40        -5.8475   -0.3417   51.5777 H       1  <0>         0.1000
     41 H41        -7.2001   -0.3172   50.3991 H       1  <0>         0.1100
     42 H42        -5.1059    2.7462   48.7492 H       1  <0>         0.4200
     43 H43         0.0641    0.7584   46.9983 H       1  <0>         0.0800
     44 H44        -0.5387    2.0791   45.9644 H       1  <0>         0.0900
     45 H45         1.9175    2.2755   46.6078 H       1  <0>         0.0900
     46 H46         0.9221    3.6855   47.0421 H       1  <0>         0.0800
     47 H47         1.5226    1.3946   48.9625 H       1  <0>         0.0700
     48 H48         2.4874    2.8895   48.8820 H       1  <0>         0.0800
     49 H49         0.6191    2.8799   50.6418 H       1  <0>         0.0900
     50 H50         0.5823    4.2480   49.4989 H       1  <0>         0.0900
     51 H51        -2.1960    3.3532   50.7836 H       1  <0>         0.1700
@<TRIPOS>BOND
     1     1     2    1
     2     1    28    1
     3     1    29    1
     4     1    30    1
     5     2     3    1
     6     2     4    1
     7     2     5    1
     8     3    31    1
     9     3    32    1
    10     3    33    1
    11     4    34    1
    12     4    35    1
    13     4    36    1
    14     5     6    1
    15     6     7    2
    16     6     8   am
    17     8    14    1
    18     8     9    1
    19     9    10    1
    20     9    37    1
    21     9    38    1
    22    10    11    1
    23    10    12    1
    24    10    13    1
    25    12    39    1
    26    13    14    1
    27    13    40    1
    28    13    41    1
    29    14    15    1
    30    14    16    1
    31    16    17    2
    32    16    18   am
    33    18    19    1
    34    18    42    1
    35    19    27    1
    36    19    20    2
    37    20    21    1
    38    21    26    1
    39    21    22    1
    40    22    23    1
    41    22    43    1
    42    22    44    1
    43    23    24    1
    44    23    45    1
    45    23    46    1
    46    24    25    1
    47    24    47    1
    48    24    48    1
    49    25    26    1
    50    25    49    1
    51    25    50    1
    52    26    27    2
    53    27    51    1
@<TRIPOS>SUBSTRUCTURE
     1 <0>         1 TEMP              0 ****  ****    0 ROOT


##########                                Name:    ZINC000680410869
##########                DOCK_Rotatable_Bonds:                   6
##########                         Heavy_Atoms:                  24
##########                    Molecular_Weight:             335.354
##########                DOCK_Rotatable_Bonds:                   6
##########                       Formal_Charge:        -1.04308e-07
##########                     HBond_Acceptors:                   7
##########                        HBond_Donors:                   0
##########                         Heavy_Atoms:                  24
##########                          Grid_Score:          -28.109505
##########                     Grid_vdw_energy:          -26.788315
##########                      Grid_es_energy:           -1.321190
##########           Internal_energy_repulsive:           12.772636

@<TRIPOS>MOLECULE
ZINC000680410869
 43 45 1 0 0
SMALL
USER_CHARGES


@<TRIPOS>ATOM
      1 O1         -7.0847    3.6107   51.7214 O.2     1  ZINC000680410869   -0.5200
      2 C2         -7.1886    2.4316   51.4441 C.2     1  ZINC000680410869    0.6100
      3 C3         -8.1471    1.5816   52.1793 C.2     1  ZINC000680410869    0.0100
      4 N4         -9.4573    1.5719   52.0358 N.2     1  ZINC000680410869   -0.2500
      5 N5         -9.9817    0.7107   52.8319 N.pl3   1  ZINC000680410869   -0.3500
      6 C6        -11.4162    0.4334   52.9391 C.3     1  ZINC000680410869    0.5000
      7 F7        -11.7078   -0.0235   54.2289 F       1  ZINC000680410869   -0.1600
      8 F8        -12.1378    1.6046   52.6850 F       1  ZINC000680410869   -0.1700
      9 C9         -9.0204    0.0974   53.5552 C.2     1  ZINC000680410869    0.0100
     10 C10        -7.8329    0.6187   53.1675 C.2     1  ZINC000680410869   -0.1700
     11 N11        -6.4331    1.9012   50.4621 N.am    1  ZINC000680410869   -0.6000
     12 C12        -6.5454    0.4782   50.1045 C.3     1  ZINC000680410869    0.0800
     13 C13        -5.1377   -0.1281   50.0850 C.3     1  ZINC000680410869    0.0500
     14 O14        -4.2925    0.6706   49.2534 O.3     1  ZINC000680410869   -0.3700
     15 C15        -4.1162    2.0121   49.7150 C.3     1  ZINC000680410869    0.0800
     16 H16        -3.7111    1.9987   50.7269 H       1  ZINC000680410869    0.0600
     17 C17        -3.1482    2.7488   48.7869 C.3     1  ZINC000680410869   -0.1000
     18 C18        -1.7586    2.7872   49.4258 C.3     1  ZINC000680410869   -0.0800
     19 C19        -1.8360    3.4936   50.7548 C.ar    1  ZINC000680410869   -0.0800
     20 C20        -1.2414    2.9344   51.8703 C.ar    1  ZINC000680410869   -0.1200
     21 C21        -1.3125    3.5824   53.0893 C.ar    1  ZINC000680410869   -0.1200
     22 C22        -1.9777    4.7898   53.1927 C.ar    1  ZINC000680410869   -0.1300
     23 C23        -2.5716    5.3493   52.0768 C.ar    1  ZINC000680410869   -0.1200
     24 C24        -2.4968    4.7035   50.8569 C.ar    1  ZINC000680410869   -0.1200
     25 C25        -5.4758    2.7293   49.7117 C.3     1  ZINC000680410869    0.0600
     26 H26       -11.6940   -0.3295   52.2119 H       1  ZINC000680410869    0.1700
     27 H27        -9.1706   -0.6692   54.3010 H       1  ZINC000680410869    0.1900
     28 H28        -6.8525    0.3587   53.5384 H       1  ZINC000680410869    0.1700
     29 H29        -7.1576   -0.0388   50.8435 H       1  ZINC000680410869    0.1000
     30 H30        -7.0001    0.3823   49.1185 H       1  ZINC000680410869    0.0800
     31 H31        -4.7364   -0.1493   51.0983 H       1  ZINC000680410869    0.0600
     32 H32        -5.1836   -1.1428   49.6896 H       1  ZINC000680410869    0.1100
     33 H33        -3.0943    2.2281   47.8308 H       1  ZINC000680410869    0.0800
     34 H34        -3.5026    3.7670   48.6265 H       1  ZINC000680410869    0.0800
     35 H35        -1.3995    1.7690   49.5760 H       1  ZINC000680410869    0.0700
     36 H36        -1.0716    3.3216   48.7697 H       1  ZINC000680410869    0.0800
     37 H37        -0.7216    1.9912   51.7897 H       1  ZINC000680410869    0.1200
     38 H38        -0.8484    3.1452   53.9611 H       1  ZINC000680410869    0.1200
     39 H39        -2.0338    5.2957   54.1452 H       1  ZINC000680410869    0.1200
     40 H40        -3.0916    6.2925   52.1575 H       1  ZINC000680410869    0.1200
     41 H41        -2.9608    5.1406   49.9851 H       1  ZINC000680410869    0.1200
     42 H42        -5.8197    2.8592   48.6856 H       1  ZINC000680410869    0.0800
     43 H43        -5.3785    3.7026   50.1929 H       1  ZINC000680410869    0.1300
@<TRIPOS>BOND
     1     1     2    2
     2     2     3    1
     3     2    11   am
     4     3    10    1
     5     3     4    2
     6     4     5    1
     7     5     6    1
     8     5     9    1
     9     6     7    1
    10     6     8    1
    11     6    26    1
    12     9    10    2
    13     9    27    1
    14    10    28    1
    15    11    25    1
    16    11    12    1
    17    12    13    1
    18    12    29    1
    19    12    30    1
    20    13    14    1
    21    13    31    1
    22    13    32    1
    23    14    15    1
    24    15    16    1
    25    15    17    1
    26    15    25    1
    27    17    18    1
    28    17    33    1
    29    17    34    1
    30    18    19    1
    31    18    35    1
    32    18    36    1
    33    19    24   ar
    34    19    20   ar
    35    20    21   ar
    36    20    37    1
    37    21    22   ar
    38    21    38    1
    39    22    23   ar
    40    22    39    1
    41    23    24   ar
    42    23    40    1
    43    24    41    1
    44    25    42    1
    45    25    43    1
@<TRIPOS>SUBSTRUCTURE
     1 ZINC000680410869        1 TEMP              0 ****  ****    0 ROOT


##########                                Name:    ZINC001248546333
##########                DOCK_Rotatable_Bonds:                   6
##########                         Heavy_Atoms:                  27
##########                    Molecular_Weight:             378.397
##########                DOCK_Rotatable_Bonds:                   6
##########                       Formal_Charge:         3.94881e-07
##########                     HBond_Acceptors:                   8
##########                        HBond_Donors:                   1
##########                         Heavy_Atoms:                  27
##########                          Grid_Score:          -28.099777
##########                     Grid_vdw_energy:          -27.024378
##########                      Grid_es_energy:           -1.075399
##########           Internal_energy_repulsive:            9.581063

@<TRIPOS>MOLECULE
ZINC001248546333
 48 50 1 0 0
SMALL
USER_CHARGES


@<TRIPOS>ATOM
      1 C1        -11.8360   -1.4563   56.0872 C.3     1  ZINC001248546333   -0.1200
      2 C2        -11.5996   -0.7178   54.7949 C.ar    1  ZINC001248546333   -0.0800
      3 C3        -12.6740   -0.3344   54.0127 C.ar    1  ZINC001248546333   -0.1200
      4 C4        -12.4655    0.3440   52.8249 C.ar    1  ZINC001248546333   -0.1100
      5 C5        -11.1829    0.6426   52.4137 C.ar    1  ZINC001248546333   -0.1100
      6 C6        -10.0947    0.2591   53.1985 C.ar    1  ZINC001248546333   -0.0600
      7 C7         -8.7178    0.5758   52.7640 C.2     1  ZINC001248546333   -0.0600
      8 C8         -8.1823   -0.1755   51.8325 C.2     1  ZINC001248546333   -0.1700
      9 C9         -6.7867    0.0222   51.3094 C.3     1  ZINC001248546333    0.1500
     10 N10        -6.2641    1.3047   51.8023 N.am    1  ZINC001248546333   -0.6300
     11 C11        -5.5844    2.1418   50.9937 C.2     1  ZINC001248546333    0.7200
     12 O12        -5.3927    1.8419   49.8312 O.2     1  ZINC001248546333   -0.5800
     13 N13        -5.1171    3.3112   51.4739 N.am    1  ZINC001248546333   -0.7500
     14 C14        -4.3783    4.2211   50.5950 C.3     1  ZINC001248546333    0.2000
     15 C15        -2.9705    3.7141   50.4163 C.2     1  ZINC001248546333    0.0700
     16 C16        -2.4075    3.3163   49.2519 C.2     1  ZINC001248546333   -0.2000
     17 C17        -1.0931    2.9215   49.5222 C.2     1  ZINC001248546333   -0.0200
     18 C18        -0.0997    2.4070   48.5124 C.3     1  ZINC001248546333    0.5600
     19 F19         0.6986    3.4644   48.0631 F       1  ZINC001248546333   -0.1700
     20 F20         0.7084    1.4327   49.1079 F       1  ZINC001248546333   -0.1700
     21 F21        -0.7842    1.8464   47.4287 F       1  ZINC001248546333   -0.1600
     22 N22        -0.8748    3.0767   50.8027 N.2     1  ZINC001248546333   -0.2200
     23 N23        -2.0435    3.5810   51.3880 N.pl3   1  ZINC001248546333   -0.3400
     24 C24        -2.2293    3.8990   52.8059 C.3     1  ZINC001248546333    0.0900
     25 C25        -6.5128    1.6381   53.2155 C.3     1  ZINC001248546333    0.1300
     26 C26        -8.0292    1.7389   53.4140 C.3     1  ZINC001248546333   -0.1000
     27 C27       -10.3120   -0.4204   54.3975 C.ar    1  ZINC001248546333   -0.1100
     28 H28       -11.9446   -0.7392   56.9008 H       1  ZINC001248546333    0.0700
     29 H29       -12.7450   -2.0521   56.0041 H       1  ZINC001248546333    0.0700
     30 H30       -10.9893   -2.1118   56.2912 H       1  ZINC001248546333    0.0700
     31 H31       -13.6800   -0.5658   54.3302 H       1  ZINC001248546333    0.1200
     32 H32       -13.3085    0.6399   52.2183 H       1  ZINC001248546333    0.1200
     33 H33       -11.0215    1.1719   51.4862 H       1  ZINC001248546333    0.1200
     34 H34        -8.7746   -0.9787   51.4195 H       1  ZINC001248546333    0.1200
     35 H35        -6.1485   -0.7894   51.6585 H       1  ZINC001248546333    0.0800
     36 H36        -6.8040    0.0305   50.2196 H       1  ZINC001248546333    0.0800
     37 H37        -5.2701    3.5505   52.4014 H       1  ZINC001248546333    0.4000
     38 H38        -4.8727    4.2703   49.6248 H       1  ZINC001248546333    0.1000
     39 H39        -4.3526    5.2156   51.0404 H       1  ZINC001248546333    0.0900
     40 H40        -2.8882    3.3053   48.2849 H       1  ZINC001248546333    0.1700
     41 H41        -1.9475    4.9364   52.9857 H       1  ZINC001248546333    0.0900
     42 H42        -3.2753    3.7545   53.0766 H       1  ZINC001248546333    0.1000
     43 H43        -1.6036    3.2425   53.4105 H       1  ZINC001248546333    0.1000
     44 H44        -6.1048    0.8562   53.8559 H       1  ZINC001248546333    0.0700
     45 H45        -6.0466    2.5935   53.4563 H       1  ZINC001248546333    0.1000
     46 H46        -8.3891    2.6696   52.9753 H       1  ZINC001248546333    0.0800
     47 H47        -8.2541    1.7357   54.4805 H       1  ZINC001248546333    0.0900
     48 H48        -9.4739   -0.7201   55.0094 H       1  ZINC001248546333    0.1200
@<TRIPOS>BOND
     1     1     2    1
     2     1    28    1
     3     1    29    1
     4     1    30    1
     5     2    27   ar
     6     2     3   ar
     7     3     4   ar
     8     3    31    1
     9     4     5   ar
    10     4    32    1
    11     5     6   ar
    12     5    33    1
    13     6     7    1
    14     6    27   ar
    15     7    26    1
    16     7     8    2
    17     8     9    1
    18     8    34    1
    19     9    10    1
    20     9    35    1
    21     9    36    1
    22    10    11   am
    23    10    25    1
    24    11    12    2
    25    11    13   am
    26    13    14    1
    27    13    37    1
    28    14    15    1
    29    14    38    1
    30    14    39    1
    31    15    23    1
    32    15    16    2
    33    16    17    1
    34    16    40    1
    35    17    18    1
    36    17    22    2
    37    18    19    1
    38    18    20    1
    39    18    21    1
    40    22    23    1
    41    23    24    1
    42    24    41    1
    43    24    42    1
    44    24    43    1
    45    25    26    1
    46    25    44    1
    47    25    45    1
    48    26    46    1
    49    26    47    1
    50    27    48    1
@<TRIPOS>SUBSTRUCTURE
     1 ZINC001248546333        1 TEMP              0 ****  ****    0 ROOT


##########                                Name:    ZINC000800038938
##########                DOCK_Rotatable_Bonds:                   6
##########                         Heavy_Atoms:                  25
##########                    Molecular_Weight:             386.274
##########                DOCK_Rotatable_Bonds:                   6
##########                       Formal_Charge:           0.0200003
##########                     HBond_Acceptors:                   7
##########                        HBond_Donors:                   0
##########                         Heavy_Atoms:                  25
##########                          Grid_Score:          -28.091198
##########                     Grid_vdw_energy:          -27.648607
##########                      Grid_es_energy:           -0.442591
##########           Internal_energy_repulsive:           14.769776

@<TRIPOS>MOLECULE
ZINC000800038938
 46 48 1 0 0
SMALL
USER_CHARGES


@<TRIPOS>ATOM
      1 C1        -12.0655    5.0915   47.4706 C.3     1  ZINC000800038938    0.0300
      2 O2        -11.1886    6.2147   47.5780 O.3     1  ZINC000800038938   -0.3800
      3 C3        -10.5851    6.3600   48.8652 C.3     1  ZINC000800038938    0.0900
      4 H4        -11.3559    6.4608   49.6293 H       1  ZINC000800038938    0.0700
      5 C5         -9.6620    7.5958   48.8795 C.3     1  ZINC000800038938   -0.1400
      6 C6         -8.4628    7.1640   49.7596 C.3     1  ZINC000800038938   -0.1400
      7 C7         -8.2616    5.6813   49.3595 C.3     1  ZINC000800038938    0.0900
      8 H8         -7.7013    5.6103   48.4273 H       1  ZINC000800038938    0.0900
      9 O9         -7.5794    4.9575   50.4174 O.3     1  ZINC000800038938   -0.3500
     10 C10        -7.3372    3.6542   50.2059 C.2     1  ZINC000800038938    0.4500
     11 O11        -7.6479    3.1448   49.1553 O.2     1  ZINC000800038938   -0.4800
     12 C12        -6.6780    2.8265   51.2789 C.3     1  ZINC000800038938    0.1500
     13 H13        -6.7713    3.3271   52.2427 H       1  ZINC000800038938    0.1200
     14 C14        -7.3368    1.4325   51.3455 C.3     1  ZINC000800038938   -0.1200
     15 C15        -6.1322    0.4912   51.6108 C.3     1  ZINC000800038938   -0.1300
     16 C16        -5.0133    1.1790   50.7894 C.3     1  ZINC000800038938    0.0900
     17 N17        -5.2580    2.6268   50.9546 N.am    1  ZINC000800038938   -0.6000
     18 C18        -4.3339    3.5993   50.8259 C.2     1  ZINC000800038938    0.5800
     19 O19        -4.6495    4.7625   50.9846 O.2     1  ZINC000800038938   -0.4900
     20 C20        -2.9370    3.2517   50.4916 C.ar    1  ZINC000800038938   -0.1100
     21 C21        -2.5999    2.8776   49.1899 C.ar    1  ZINC000800038938   -0.0700
     22 C22        -1.2931    2.5540   48.8845 C.ar    1  ZINC000800038938   -0.0400
     23 Cl23       -0.8716    2.0889   47.2659 Cl      1  ZINC000800038938   -0.0500
     24 C24        -0.3174    2.5999   49.8663 C.ar    1  ZINC000800038938   -0.0700
     25 C25        -0.6443    2.9693   51.1582 C.ar    1  ZINC000800038938   -0.1000
     26 C26        -1.9466    3.3015   51.4762 C.ar    1  ZINC000800038938    0.0100
     27 Cl27       -2.3552    3.7650   53.0985 Cl      1  ZINC000800038938   -0.0300
     28 C28        -9.6958    5.1421   49.1710 C.3     1  ZINC000800038938   -0.1200
     29 H29       -12.4827    5.0512   46.4644 H       1  ZINC000800038938    0.0900
     30 H30       -11.5091    4.1757   47.6703 H       1  ZINC000800038938    0.0400
     31 H31       -12.8736    5.1910   48.1954 H       1  ZINC000800038938    0.0400
     32 H32        -9.3278    7.8341   47.8697 H       1  ZINC000800038938    0.0800
     33 H33       -10.1738    8.4492   49.3243 H       1  ZINC000800038938    0.0800
     34 H34        -7.5767    7.7522   49.5207 H       1  ZINC000800038938    0.0800
     35 H35        -8.7100    7.2484   50.8178 H       1  ZINC000800038938    0.0800
     36 H36        -8.0528    1.3831   52.1659 H       1  ZINC000800038938    0.1000
     37 H37        -7.8167    1.1872   50.3981 H       1  ZINC000800038938    0.0900
     38 H38        -5.8806    0.4680   52.6711 H       1  ZINC000800038938    0.0900
     39 H39        -6.3310   -0.5128   51.2359 H       1  ZINC000800038938    0.1000
     40 H40        -4.0335    0.9136   51.1865 H       1  ZINC000800038938    0.0900
     41 H41        -5.0866    0.8982   49.7388 H       1  ZINC000800038938    0.0800
     42 H42        -3.3598    2.8410   48.4233 H       1  ZINC000800038938    0.1500
     43 H43         0.7035    2.3458   49.6219 H       1  ZINC000800038938    0.1500
     44 H44         0.1214    3.0027   51.9193 H       1  ZINC000800038938    0.1500
     45 H45       -10.0334    4.6518   50.0840 H       1  ZINC000800038938    0.0900
     46 H46        -9.7243    4.4404   48.3374 H       1  ZINC000800038938    0.0900
@<TRIPOS>BOND
     1     1     2    1
     2     1    29    1
     3     1    30    1
     4     1    31    1
     5     2     3    1
     6     3     4    1
     7     3    28    1
     8     3     5    1
     9     5     6    1
    10     5    32    1
    11     5    33    1
    12     6     7    1
    13     6    34    1
    14     6    35    1
    15     7     8    1
    16     7     9    1
    17     7    28    1
    18     9    10    1
    19    10    11    2
    20    10    12    1
    21    12    13    1
    22    12    17    1
    23    12    14    1
    24    14    15    1
    25    14    36    1
    26    14    37    1
    27    15    16    1
    28    15    38    1
    29    15    39    1
    30    16    17    1
    31    16    40    1
    32    16    41    1
    33    17    18   am
    34    18    19    2
    35    18    20    1
    36    20    26   ar
    37    20    21   ar
    38    21    22   ar
    39    21    42    1
    40    22    23    1
    41    22    24   ar
    42    24    25   ar
    43    24    43    1
    44    25    26   ar
    45    25    44    1
    46    26    27    1
    47    28    45    1
    48    28    46    1
@<TRIPOS>SUBSTRUCTURE
     1 ZINC000800038938        1 TEMP              0 ****  ****    0 ROOT


##########                                Name:    ZINC001023407238
##########                DOCK_Rotatable_Bonds:                   7
##########                         Heavy_Atoms:                  25
##########                    Molecular_Weight:             349.387
##########                DOCK_Rotatable_Bonds:                   7
##########                       Formal_Charge:          -0.0300008
##########                     HBond_Acceptors:                   8
##########                        HBond_Donors:                   2
##########                         Heavy_Atoms:                  25
##########                          Grid_Score:          -28.090527
##########                     Grid_vdw_energy:          -27.580847
##########                      Grid_es_energy:           -0.509680
##########           Internal_energy_repulsive:            7.310325

@<TRIPOS>MOLECULE
ZINC001023407238
 48 50 1 0 0
SMALL
USER_CHARGES


@<TRIPOS>ATOM
      1 C1        -10.9076    3.2624   53.0491 C.3     1  ZINC001023407238   -0.0900
      2 C2        -10.1543    3.1065   54.3450 C.2     1  ZINC001023407238   -0.1100
      3 C3         -9.3710    2.0333   54.7132 C.2     1  ZINC001023407238   -0.0500
      4 C4         -9.1172    0.8303   53.9134 C.2     1  ZINC001023407238    0.6100
      5 O5         -9.8408   -0.1413   54.0293 O.2     1  ZINC001023407238   -0.5100
      6 N6         -8.0826    0.8008   53.0502 N.am    1  ZINC001023407238   -0.6100
      7 C7         -7.7155   -0.3343   52.1910 C.3     1  ZINC001023407238    0.0800
      8 C8         -6.4896    0.0983   51.3592 C.3     1  ZINC001023407238    0.0900
      9 H9         -5.5662   -0.2418   51.8279 H       1  ZINC001023407238    0.0800
     10 O10        -6.5869   -0.3946   50.0215 O.3     1  ZINC001023407238   -0.5500
     11 C11        -6.5807    1.6470   51.3856 C.3     1  ZINC001023407238    0.1400
     12 H12        -7.2745    2.0105   50.6276 H       1  ZINC001023407238    0.1200
     13 N13        -5.2580    2.2537   51.2170 N.am    1  ZINC001023407238   -0.7200
     14 C14        -5.1068    3.3296   50.4195 C.2     1  ZINC001023407238    0.5200
     15 O15        -6.0656    3.7946   49.8402 O.2     1  ZINC001023407238   -0.5300
     16 C16        -3.7464    3.9549   50.2474 C.3     1  ZINC001023407238   -0.1300
     17 C17        -2.7215    2.8654   49.9260 C.3     1  ZINC001023407238   -0.1100
     18 H18        -2.6070    2.1820   50.7675 H       1  ZINC001023407238    0.1100
     19 C19        -3.1169    2.0985   48.6436 C.3     1  ZINC001023407238    0.0600
     20 O20        -1.8459    1.7835   48.0016 O.3     1  ZINC001023407238   -0.3500
     21 C21        -0.9439    2.7342   48.2840 C.2     1  ZINC001023407238    0.4800
     22 O22         0.0548    2.9570   47.6414 O.2     1  ZINC001023407238   -0.4600
     23 C23        -1.3627    3.4869   49.5331 C.3     1  ZINC001023407238   -0.1800
     24 C24        -7.1350    1.9038   52.8068 C.3     1  ZINC001023407238    0.1000
     25 N25        -8.8701    2.2968   55.9681 N.pl3   1  ZINC001023407238   -0.4200
     26 C26        -7.9870    1.4169   56.7375 C.3     1  ZINC001023407238    0.0700
     27 C27        -9.3300    3.5056   56.3731 C.2     1  ZINC001023407238    0.0100
     28 C28       -10.1131    4.0257   55.3979 C.2     1  ZINC001023407238   -0.2000
     29 H29       -10.2677    3.7489   52.3130 H       1  ZINC001023407238    0.0600
     30 H30       -11.2036    2.2802   52.6805 H       1  ZINC001023407238    0.0600
     31 H31       -11.7965    3.8707   53.2164 H       1  ZINC001023407238    0.0700
     32 H32        -7.4604   -1.1973   52.8058 H       1  ZINC001023407238    0.0800
     33 H33        -8.5449   -0.5808   51.5281 H       1  ZINC001023407238    0.0800
     34 H34        -6.8206    0.2803   49.3696 H       1  ZINC001023407238    0.3900
     35 H35        -4.4909    1.8812   51.6794 H       1  ZINC001023407238    0.4100
     36 H36        -3.7786    4.6759   49.4306 H       1  ZINC001023407238    0.1000
     37 H37        -3.4606    4.4623   51.1688 H       1  ZINC001023407238    0.1100
     38 H38        -3.6523    1.1836   48.8971 H       1  ZINC001023407238    0.1200
     39 H39        -3.7249    2.7292   47.9951 H       1  ZINC001023407238    0.0800
     40 H40        -1.4823    4.5481   49.3143 H       1  ZINC001023407238    0.1100
     41 H41        -0.6296    3.3426   50.3267 H       1  ZINC001023407238    0.1200
     42 H42        -7.6482    2.8648   52.8459 H       1  ZINC001023407238    0.0900
     43 H43        -6.3289    1.8731   53.5398 H       1  ZINC001023407238    0.0800
     44 H44        -6.9498    1.7082   56.5719 H       1  ZINC001023407238    0.0800
     45 H45        -8.2234    1.5023   57.7982 H       1  ZINC001023407238    0.0900
     46 H46        -8.1308    0.3857   56.4152 H       1  ZINC001023407238    0.0800
     47 H47        -9.1057    3.9787   57.3176 H       1  ZINC001023407238    0.1700
     48 H48       -10.6213    4.9781   55.4306 H       1  ZINC001023407238    0.1400
@<TRIPOS>BOND
     1     1     2    1
     2     1    29    1
     3     1    30    1
     4     1    31    1
     5     2    28    1
     6     2     3    2
     7     3     4    1
     8     3    25    1
     9     4     5    2
    10     4     6   am
    11     6    24    1
    12     6     7    1
    13     7     8    1
    14     7    32    1
    15     7    33    1
    16     8     9    1
    17     8    10    1
    18     8    11    1
    19    10    34    1
    20    11    12    1
    21    11    13    1
    22    11    24    1
    23    13    14   am
    24    13    35    1
    25    14    15    2
    26    14    16    1
    27    16    17    1
    28    16    36    1
    29    16    37    1
    30    17    18    1
    31    17    23    1
    32    17    19    1
    33    19    20    1
    34    19    38    1
    35    19    39    1
    36    20    21    1
    37    21    22    2
    38    21    23    1
    39    23    40    1
    40    23    41    1
    41    24    42    1
    42    24    43    1
    43    25    26    1
    44    25    27    1
    45    26    44    1
    46    26    45    1
    47    26    46    1
    48    27    28    2
    49    27    47    1
    50    28    48    1
@<TRIPOS>SUBSTRUCTURE
     1 ZINC001023407238        1 TEMP              0 ****  ****    0 ROOT


##########                                Name:    ZINC001064463188
##########                DOCK_Rotatable_Bonds:                   6
##########                         Heavy_Atoms:                  25
##########                    Molecular_Weight:             342.441
##########                DOCK_Rotatable_Bonds:                   6
##########                       Formal_Charge:          -0.0100004
##########                     HBond_Acceptors:                   6
##########                        HBond_Donors:                   0
##########                         Heavy_Atoms:                  25
##########                          Grid_Score:          -28.085861
##########                     Grid_vdw_energy:          -26.954374
##########                      Grid_es_energy:           -1.131486
##########           Internal_energy_repulsive:           19.282263

@<TRIPOS>MOLECULE
ZINC001064463188
 51 54 1 0 0
SMALL
USER_CHARGES


@<TRIPOS>ATOM
      1 C1          1.3532    2.3655   48.5323 C.3     1  ZINC001064463188    0.0400
      2 O2          0.2660    2.4432   49.4565 O.3     1  ZINC001064463188   -0.3000
      3 C3         -0.9856    2.3774   48.9411 C.ar    1  ZINC001064463188    0.3900
      4 C4         -1.1832    2.0204   47.6082 C.ar    1  ZINC001064463188   -0.2800
      5 C5         -2.4771    1.9660   47.1247 C.ar    1  ZINC001064463188    0.2000
      6 N6         -3.4840    2.2524   47.9358 N.ar    1  ZINC001064463188   -0.5800
      7 C7         -3.2657    2.5887   49.1985 C.ar    1  ZINC001064463188    0.5300
      8 N8         -4.3440    2.8805   50.0155 N.3     1  ZINC001064463188   -0.4500
      9 C9         -4.7815    1.6947   50.7485 C.3     1  ZINC001064463188    0.0700
     10 C10        -6.3117    1.5974   50.7309 C.3     1  ZINC001064463188   -0.1200
     11 C11        -6.9621    2.7165   51.5218 C.3     1  ZINC001064463188    0.1400
     12 H12        -8.0467    2.6484   51.4384 H       1  ZINC001064463188    0.0900
     13 C13        -6.5492    2.6800   52.9946 C.3     1  ZINC001064463188   -0.1300
     14 C14        -5.2803    3.5488   53.0539 C.3     1  ZINC001064463188   -0.1300
     15 C15        -5.2831    4.3544   51.7501 C.3     1  ZINC001064463188    0.1200
     16 H16        -5.2913    5.4205   51.9769 H       1  ZINC001064463188    0.0900
     17 C17        -4.0347    4.0196   50.9195 C.3     1  ZINC001064463188    0.0600
     18 N18        -6.4879    4.0102   50.9484 N.am    1  ZINC001064463188   -0.6000
     19 C19        -7.0227    4.7153   49.9319 C.2     1  ZINC001064463188    0.5800
     20 O20        -6.5110    5.7616   49.5822 O.2     1  ZINC001064463188   -0.5400
     21 C21        -8.2254    4.2192   49.2454 C.2     1  ZINC001064463188   -0.2200
     22 C22        -9.3474    4.9327   49.2706 C.2     1  ZINC001064463188    0.0000
     23 C23        -9.3867    6.2495   50.0024 C.3     1  ZINC001064463188   -0.1300
     24 C24       -10.5796    4.4245   48.5673 C.3     1  ZINC001064463188   -0.1200
     25 C25       -11.8476    4.2452   49.4046 C.3     1  ZINC001064463188   -0.1900
     26 C26       -11.7497    5.3961   48.4012 C.3     1  ZINC001064463188   -0.1600
     27 N27        -2.0410    2.6465   49.7001 N.ar    1  ZINC001064463188   -0.5900
     28 H28         1.2854    3.1892   47.8215 H       1  ZINC001064463188    0.0600
     29 H29         2.2965    2.4303   49.0746 H       1  ZINC001064463188    0.1000
     30 H30         1.3068    1.4179   47.9957 H       1  ZINC001064463188    0.0600
     31 H31        -0.3443    1.7919   46.9676 H       1  ZINC001064463188    0.1500
     32 H32        -2.6647    1.6933   46.0966 H       1  ZINC001064463188    0.1800
     33 H33        -4.3576    0.8052   50.2826 H       1  ZINC001064463188    0.0800
     34 H34        -4.4354    1.7596   51.7800 H       1  ZINC001064463188    0.0600
     35 H35        -6.6579    1.6454   49.6986 H       1  ZINC001064463188    0.0800
     36 H36        -6.6108    0.6407   51.1591 H       1  ZINC001064463188    0.0800
     37 H37        -7.3328    3.1063   53.6209 H       1  ZINC001064463188    0.0800
     38 H38        -6.3266    1.6585   53.3030 H       1  ZINC001064463188    0.0900
     39 H39        -5.3208    4.2190   53.9126 H       1  ZINC001064463188    0.0800
     40 H40        -4.3927    2.9184   53.1070 H       1  ZINC001064463188    0.0800
     41 H41        -3.2213    3.7280   51.5838 H       1  ZINC001064463188    0.0700
     42 H42        -3.7384    4.8924   50.3377 H       1  ZINC001064463188    0.0900
     43 H43        -8.1972    3.2754   48.7209 H       1  ZINC001064463188    0.1200
     44 H44        -9.1067    7.0525   49.3207 H       1  ZINC001064463188    0.0800
     45 H45       -10.3945    6.4265   50.3780 H       1  ZINC001064463188    0.0800
     46 H46        -8.6873    6.2217   50.8380 H       1  ZINC001064463188    0.0700
     47 H47       -10.4011    3.7095   47.7641 H       1  ZINC001064463188    0.1400
     48 H48       -12.5035    3.4120   49.1523 H       1  ZINC001064463188    0.1000
     49 H49       -11.7906    4.4948   50.4640 H       1  ZINC001064463188    0.1000
     50 H50       -11.6283    6.4029   48.8007 H       1  ZINC001064463188    0.0900
     51 H51       -12.3413    5.3202   47.4890 H       1  ZINC001064463188    0.1000
@<TRIPOS>BOND
     1     1     2    1
     2     1    28    1
     3     1    29    1
     4     1    30    1
     5     2     3    1
     6     3    27   ar
     7     3     4   ar
     8     4     5   ar
     9     4    31    1
    10     5     6   ar
    11     5    32    1
    12     6     7   ar
    13     7     8    1
    14     7    27   ar
    15     8    17    1
    16     8     9    1
    17     9    10    1
    18     9    33    1
    19     9    34    1
    20    10    11    1
    21    10    35    1
    22    10    36    1
    23    11    12    1
    24    11    18    1
    25    11    13    1
    26    13    14    1
    27    13    37    1
    28    13    38    1
    29    14    15    1
    30    14    39    1
    31    14    40    1
    32    15    16    1
    33    15    17    1
    34    15    18    1
    35    17    41    1
    36    17    42    1
    37    18    19   am
    38    19    20    2
    39    19    21    1
    40    21    22    2
    41    21    43    1
    42    22    23    1
    43    22    24    1
    44    23    44    1
    45    23    45    1
    46    23    46    1
    47    24    26    1
    48    24    25    1
    49    24    47    1
    50    25    26    1
    51    25    48    1
    52    25    49    1
    53    26    50    1
    54    26    51    1
@<TRIPOS>SUBSTRUCTURE
     1 ZINC001064463188        1 TEMP              0 ****  ****    0 ROOT


##########                                Name:    ZINC000455156110
##########                DOCK_Rotatable_Bonds:                   4
##########                         Heavy_Atoms:                  27
##########                    Molecular_Weight:             370.424
##########                DOCK_Rotatable_Bonds:                   4
##########                       Formal_Charge:           0.0100002
##########                     HBond_Acceptors:                   6
##########                        HBond_Donors:                   1
##########                         Heavy_Atoms:                  27
##########                          Grid_Score:          -28.076057
##########                     Grid_vdw_energy:          -27.717524
##########                      Grid_es_energy:           -0.358535
##########           Internal_energy_repulsive:           43.722240

@<TRIPOS>MOLECULE
ZINC000455156110
 50 53 1 0 0
SMALL
USER_CHARGES


@<TRIPOS>ATOM
      1 C1          0.9366    5.3546   58.8453 C.3     1  ZINC000455156110    0.0300
      2 O2         -0.0712    6.1730   58.2480 O.3     1  ZINC000455156110   -0.3100
      3 C3         -0.7409    5.6512   57.1852 C.ar    1  ZINC000455156110    0.0900
      4 C4         -1.7283    6.3931   56.5563 C.ar    1  ZINC000455156110   -0.1600
      5 C5         -2.4090    5.8640   55.4764 C.ar    1  ZINC000455156110   -0.0800
      6 C6         -3.4828    6.6715   54.7939 C.3     1  ZINC000455156110   -0.1100
      7 C7         -2.1039    4.5892   55.0201 C.ar    1  ZINC000455156110    0.1500
      8 N8         -2.7939    4.0533   53.9243 N.am    1  ZINC000455156110   -0.6700
      9 C9         -2.1488    3.8408   52.7603 C.2     1  ZINC000455156110    0.7200
     10 O10        -0.9681    4.1139   52.6608 O.2     1  ZINC000455156110   -0.5500
     11 N11        -2.8124    3.3254   51.7064 N.am    1  ZINC000455156110   -0.5600
     12 C12        -4.2335    2.9633   51.7027 C.3     1  ZINC000455156110    0.1000
     13 C13        -4.5042    2.4307   50.2904 C.3     1  ZINC000455156110   -0.0200
     14 C14        -4.9703    0.9780   50.3527 C.3     1  ZINC000455156110   -0.1400
     15 C15        -6.3353    0.9170   51.0454 C.3     1  ZINC000455156110    0.0600
     16 O16        -7.2598    1.7523   50.3455 O.3     1  ZINC000455156110   -0.3800
     17 C17        -6.8956    3.1339   50.3173 C.3     1  ZINC000455156110    0.0600
     18 C18        -5.5552    3.2911   49.5927 C.3     1  ZINC000455156110   -0.1400
     19 C19        -3.1806    2.5306   49.5747 C.ar    1  ZINC000455156110   -0.1300
     20 C20        -2.8146    2.1983   48.2846 C.ar    1  ZINC000455156110   -0.0700
     21 C21        -1.5128    2.3893   47.8599 C.ar    1  ZINC000455156110   -0.1400
     22 C22        -0.5753    2.9146   48.7298 C.ar    1  ZINC000455156110   -0.0900
     23 C23        -0.9351    3.2471   50.0186 C.ar    1  ZINC000455156110   -0.1300
     24 C24        -2.2483    3.0629   50.4535 C.ar    1  ZINC000455156110    0.1600
     25 C25        -1.1144    3.8452   55.6490 C.ar    1  ZINC000455156110   -0.1200
     26 C26        -0.4308    4.3768   56.7265 C.ar    1  ZINC000455156110    0.0900
     27 F27         0.5324    3.6540   57.3390 F       1  ZINC000455156110   -0.1300
     28 H28         1.3914    5.8889   59.6794 H       1  ZINC000455156110    0.1000
     29 H29         0.4863    4.4305   59.2078 H       1  ZINC000455156110    0.0600
     30 H30         1.7006    5.1201   58.1040 H       1  ZINC000455156110    0.0600
     31 H31        -1.9660    7.3853   56.9106 H       1  ZINC000455156110    0.1400
     32 H32        -3.0391    7.2621   53.9923 H       1  ZINC000455156110    0.0800
     33 H33        -4.2334    5.9996   54.3774 H       1  ZINC000455156110    0.0600
     34 H34        -3.9527    7.3369   55.5181 H       1  ZINC000455156110    0.0800
     35 H35        -3.7357    3.8354   54.0037 H       1  ZINC000455156110    0.4100
     36 H36        -4.4288    2.1880   52.4437 H       1  ZINC000455156110    0.0800
     37 H37        -4.8485    3.8411   51.9007 H       1  ZINC000455156110    0.0900
     38 H38        -5.0568    0.5795   49.3418 H       1  ZINC000455156110    0.0800
     39 H39        -4.2486    0.3877   50.9172 H       1  ZINC000455156110    0.0800
     40 H40        -6.6991   -0.1105   51.0422 H       1  ZINC000455156110    0.1000
     41 H41        -6.2370    1.2651   52.0737 H       1  ZINC000455156110    0.0500
     42 H42        -7.6627    3.7015   49.7903 H       1  ZINC000455156110    0.1000
     43 H43        -6.8034    3.5067   51.3375 H       1  ZINC000455156110    0.0500
     44 H44        -5.2468    4.3362   49.6199 H       1  ZINC000455156110    0.0800
     45 H45        -5.6609    2.9684   48.5570 H       1  ZINC000455156110    0.0800
     46 H46        -3.5475    1.7876   47.6061 H       1  ZINC000455156110    0.1300
     47 H47        -1.2289    2.1286   46.8511 H       1  ZINC000455156110    0.1300
     48 H48         0.4418    3.0645   48.3990 H       1  ZINC000455156110    0.1300
     49 H49        -0.1980    3.6565   50.6936 H       1  ZINC000455156110    0.1400
     50 H50        -0.8766    2.8532   55.2944 H       1  ZINC000455156110    0.1700
@<TRIPOS>BOND
     1     1     2    1
     2     1    28    1
     3     1    29    1
     4     1    30    1
     5     2     3    1
     6     3    26   ar
     7     3     4   ar
     8     4     5   ar
     9     4    31    1
    10     5     6    1
    11     5     7   ar
    12     6    32    1
    13     6    33    1
    14     6    34    1
    15     7     8    1
    16     7    25   ar
    17     8     9   am
    18     8    35    1
    19     9    10    2
    20     9    11   am
    21    11    24    1
    22    11    12    1
    23    12    13    1
    24    12    36    1
    25    12    37    1
    26    13    18    1
    27    13    14    1
    28    13    19    1
    29    14    15    1
    30    14    38    1
    31    14    39    1
    32    15    16    1
    33    15    40    1
    34    15    41    1
    35    16    17    1
    36    17    18    1
    37    17    42    1
    38    17    43    1
    39    18    44    1
    40    18    45    1
    41    19    24   ar
    42    19    20   ar
    43    20    21   ar
    44    20    46    1
    45    21    22   ar
    46    21    47    1
    47    22    23   ar
    48    22    48    1
    49    23    24   ar
    50    23    49    1
    51    25    26   ar
    52    25    50    1
    53    26    27    1
@<TRIPOS>SUBSTRUCTURE
     1 ZINC000455156110        1 TEMP              0 ****  ****    0 ROOT


##########                                Name:    ZINC000863208514
##########                DOCK_Rotatable_Bonds:                   6
##########                         Heavy_Atoms:                  19
##########                    Molecular_Weight:             368.657
##########                DOCK_Rotatable_Bonds:                   6
##########                       Formal_Charge:           0.0100005
##########                     HBond_Acceptors:                   7
##########                        HBond_Donors:                   2
##########                         Heavy_Atoms:                  19
##########                          Grid_Score:          -28.059120
##########                     Grid_vdw_energy:          -26.843277
##########                      Grid_es_energy:           -1.215843
##########           Internal_energy_repulsive:           10.018726

@<TRIPOS>MOLECULE
ZINC000863208514
 31 31 1 0 0
SMALL
USER_CHARGES


@<TRIPOS>ATOM
      1 C1          0.2832    3.1753   48.5233 C.3     1  ZINC000863208514    0.0900
      2 N2         -0.7656    2.3557   47.9113 N.am    1  ZINC000863208514   -0.6100
      3 C3         -0.4657    1.5467   46.7274 C.3     1  ZINC000863208514    0.0700
      4 C4         -2.0064    2.3461   48.4375 C.2     1  ZINC000863208514    0.5100
      5 O5         -2.8743    1.6666   47.9318 O.2     1  ZINC000863208514   -0.5400
      6 C6         -2.3152    3.1799   49.6542 C.3     1  ZINC000863208514    0.1100
      7 N7         -3.6404    3.7869   49.5068 N.am    1  ZINC000863208514   -0.6600
      8 C8         -4.7058    3.2367   50.1221 C.2     1  ZINC000863208514    0.5600
      9 S9         -6.2541    3.9472   49.9515 S.2     1  ZINC000863208514   -0.6000
     10 N10        -4.5524    2.1273   50.8719 N.am    1  ZINC000863208514   -0.6300
     11 C11        -5.6596    1.5556   51.5113 C.ar    1  ZINC000863208514    0.1200
     12 C12        -5.9695    1.9121   52.8159 C.ar    1  ZINC000863208514   -0.0300
     13 C13        -7.0634    1.3465   53.4449 C.ar    1  ZINC000863208514   -0.0200
     14 Cl14       -7.4519    1.7928   55.0770 Cl      1  ZINC000863208514   -0.0300
     15 C15        -7.8495    0.4253   52.7745 C.ar    1  ZINC000863208514   -0.0600
     16 Br16       -9.3446   -0.3456   53.6383 Br      1  ZINC000863208514   -0.0100
     17 C17        -7.5437    0.0678   51.4731 C.ar    1  ZINC000863208514   -0.1100
     18 C18        -6.4539    0.6336   50.8377 C.ar    1  ZINC000863208514    0.1100
     19 F19        -6.1554    0.2844   49.5673 F       1  ZINC000863208514   -0.1200
     20 H20         1.2110    3.0551   47.9640 H       1  ZINC000863208514    0.0800
     21 H21        -0.0180    4.2227   48.5066 H       1  ZINC000863208514    0.0700
     22 H22         0.4370    2.8579   49.5547 H       1  ZINC000863208514    0.0700
     23 H23        -0.1286    0.5580   47.0388 H       1  ZINC000863208514    0.0700
     24 H24        -1.3635    1.4489   46.1172 H       1  ZINC000863208514    0.0800
     25 H25         0.3182    2.0311   46.1453 H       1  ZINC000863208514    0.0800
     26 H26        -2.3022    2.5468   50.5414 H       1  ZINC000863208514    0.1200
     27 H27        -1.5656    3.9646   49.7568 H       1  ZINC000863208514    0.1200
     28 H28        -3.7510    4.5847   48.9662 H       1  ZINC000863208514    0.4100
     29 H29        -3.6751    1.7247   50.9685 H       1  ZINC000863208514    0.4200
     30 H30        -5.3566    2.6305   53.3399 H       1  ZINC000863208514    0.1800
     31 H31        -8.1586   -0.6513   50.9523 H       1  ZINC000863208514    0.1600
@<TRIPOS>BOND
     1     1     2    1
     2     1    20    1
     3     1    21    1
     4     1    22    1
     5     2     3    1
     6     2     4   am
     7     3    23    1
     8     3    24    1
     9     3    25    1
    10     4     5    2
    11     4     6    1
    12     6     7    1
    13     6    26    1
    14     6    27    1
    15     7     8   am
    16     7    28    1
    17     8     9    2
    18     8    10   am
    19    10    11    1
    20    10    29    1
    21    11    18   ar
    22    11    12   ar
    23    12    13   ar
    24    12    30    1
    25    13    14    1
    26    13    15   ar
    27    15    16    1
    28    15    17   ar
    29    17    18   ar
    30    17    31    1
    31    18    19    1
@<TRIPOS>SUBSTRUCTURE
     1 ZINC000863208514        1 TEMP              0 ****  ****    0 ROOT


##########                                Name:    ZINC000543429378
##########                DOCK_Rotatable_Bonds:                   6
##########                         Heavy_Atoms:                  29
##########                    Molecular_Weight:             406.408
##########                DOCK_Rotatable_Bonds:                   6
##########                       Formal_Charge:           0.0100003
##########                     HBond_Acceptors:                   9
##########                        HBond_Donors:                   1
##########                         Heavy_Atoms:                  29
##########                          Grid_Score:          -28.030113
##########                     Grid_vdw_energy:          -27.897589
##########                      Grid_es_energy:           -0.132524
##########           Internal_energy_repulsive:           43.055538

@<TRIPOS>MOLECULE
ZINC000543429378
 50 53 1 0 0
SMALL
USER_CHARGES


@<TRIPOS>ATOM
      1 O1         -6.9729    0.5540   53.5003 O.2     1  ZINC000543429378   -0.5100
      2 C2         -7.8812    1.0712   52.8850 C.2     1  ZINC000543429378    0.5200
      3 N3         -9.1184    1.1127   53.4179 N.am    1  ZINC000543429378   -0.6600
      4 C4         -9.3563    0.5541   54.6786 C.ar    1  ZINC000543429378    0.1900
      5 C5         -8.6624    1.0201   55.7877 C.ar    1  ZINC000543429378   -0.1600
      6 C6         -8.8976    0.4688   57.0326 C.ar    1  ZINC000543429378   -0.0600
      7 C7         -9.8229   -0.5471   57.1775 C.ar    1  ZINC000543429378   -0.2100
      8 C8        -10.5193   -1.0167   56.0724 C.ar    1  ZINC000543429378    0.1300
      9 O9        -11.4290   -2.0160   56.2164 O.3     1  ZINC000543429378   -0.3100
     10 C10       -11.7458   -2.4176   57.5507 C.3     1  ZINC000543429378    0.6000
     11 F11       -10.6024   -2.9404   58.1644 F       1  ZINC000543429378   -0.1600
     12 F12       -12.1992   -1.3103   58.2757 F       1  ZINC000543429378   -0.1300
     13 F13       -12.7460   -3.3952   57.5185 F       1  ZINC000543429378   -0.1600
     14 C14       -10.2902   -0.4624   54.8231 C.ar    1  ZINC000543429378   -0.1300
     15 C15        -7.6250    1.6729   51.5273 C.3     1  ZINC000543429378    0.0700
     16 H16        -8.5673    1.8036   50.9953 H       1  ZINC000543429378    0.1200
     17 C17        -6.6789    0.7512   50.7098 C.3     1  ZINC000543429378   -0.1200
     18 C18        -5.7989    1.7743   49.9751 C.3     1  ZINC000543429378   -0.1000
     19 H19        -6.3230    2.1989   49.1189 H       1  ZINC000543429378    0.0900
     20 C20        -4.4201    1.2760   49.5769 C.3     1  ZINC000543429378   -0.1100
     21 C21        -3.6587    2.4692   48.9779 C.3     1  ZINC000543429378   -0.1200
     22 C22        -3.5607    3.6247   49.9696 C.3     1  ZINC000543429378   -0.1100
     23 C23        -4.9491    4.0437   50.4809 C.3     1  ZINC000543429378   -0.0900
     24 C24        -5.6055    2.8303   51.0972 C.3     1  ZINC000543429378    0.0700
     25 H25        -4.9421    2.4067   51.8512 H       1  ZINC000543429378    0.0900
     26 N26        -6.9405    2.9839   51.6751 N.3     1  ZINC000543429378   -0.4300
     27 C27        -6.8651    3.3449   53.0091 C.ar    1  ZINC000543429378    0.5000
     28 N28        -7.8763    4.0004   53.5598 N.ar    1  ZINC000543429378   -0.5300
     29 C29        -7.8363    4.3598   54.8323 C.ar    1  ZINC000543429378    0.1800
     30 C30        -6.7197    4.0424   55.5897 C.ar    1  ZINC000543429378   -0.2500
     31 C31        -5.6801    3.3561   54.9820 C.ar    1  ZINC000543429378    0.1800
     32 N32        -5.7859    3.0220   53.7065 N.ar    1  ZINC000543429378   -0.5300
     33 H33        -9.8439    1.5299   52.9275 H       1  ZINC000543429378    0.4200
     34 H34        -7.9381    1.8136   55.6770 H       1  ZINC000543429378    0.1400
     35 H35        -8.3570    0.8323   57.8939 H       1  ZINC000543429378    0.1400
     36 H36       -10.0041   -0.9765   58.1516 H       1  ZINC000543429378    0.1400
     37 H37       -10.8313   -0.8265   53.9622 H       1  ZINC000543429378    0.1500
     38 H38        -6.0794    0.1242   51.3697 H       1  ZINC000543429378    0.0800
     39 H39        -7.2427    0.1429   50.0024 H       1  ZINC000543429378    0.0900
     40 H40        -3.8929    0.9025   50.4548 H       1  ZINC000543429378    0.0700
     41 H41        -4.5123    0.4840   48.8336 H       1  ZINC000543429378    0.0700
     42 H42        -2.6535    2.1490   48.7036 H       1  ZINC000543429378    0.0600
     43 H43        -4.1789    2.8110   48.0832 H       1  ZINC000543429378    0.0600
     44 H44        -2.9467    3.3170   50.8161 H       1  ZINC000543429378    0.0600
     45 H45        -3.0891    4.4764   49.4794 H       1  ZINC000543429378    0.0700
     46 H46        -4.8468    4.8299   51.2290 H       1  ZINC000543429378    0.0700
     47 H47        -5.5586    4.3987   49.6498 H       1  ZINC000543429378    0.0700
     48 H48        -8.6635    4.8943   55.2754 H       1  ZINC000543429378    0.1600
     49 H49        -6.6610    4.3241   56.6306 H       1  ZINC000543429378    0.1400
     50 H50        -4.7959    3.0940   55.5441 H       1  ZINC000543429378    0.1600
@<TRIPOS>BOND
     1     1     2    2
     2     2     3   am
     3     2    15    1
     4     3     4    1
     5     3    33    1
     6     4    14   ar
     7     4     5   ar
     8     5     6   ar
     9     5    34    1
    10     6     7   ar
    11     6    35    1
    12     7     8   ar
    13     7    36    1
    14     8     9    1
    15     8    14   ar
    16     9    10    1
    17    10    11    1
    18    10    12    1
    19    10    13    1
    20    14    37    1
    21    15    16    1
    22    15    26    1
    23    15    17    1
    24    17    18    1
    25    17    38    1
    26    17    39    1
    27    18    19    1
    28    18    24    1
    29    18    20    1
    30    20    21    1
    31    20    40    1
    32    20    41    1
    33    21    22    1
    34    21    42    1
    35    21    43    1
    36    22    23    1
    37    22    44    1
    38    22    45    1
    39    23    24    1
    40    23    46    1
    41    23    47    1
    42    24    25    1
    43    24    26    1
    44    26    27    1
    45    27    32   ar
    46    27    28   ar
    47    28    29   ar
    48    29    30   ar
    49    29    48    1
    50    30    31   ar
    51    30    49    1
    52    31    32   ar
    53    31    50    1
@<TRIPOS>SUBSTRUCTURE
     1 ZINC000543429378        1 TEMP              0 ****  ****    0 ROOT


##########                                Name:    ZINC000274267583
##########                DOCK_Rotatable_Bonds:                   5
##########                         Heavy_Atoms:                  24
##########                    Molecular_Weight:             349.407
##########                DOCK_Rotatable_Bonds:                   5
##########                       Formal_Charge:           0.0300001
##########                     HBond_Acceptors:                   7
##########                        HBond_Donors:                   1
##########                         Heavy_Atoms:                  24
##########                          Grid_Score:          -27.994328
##########                     Grid_vdw_energy:          -25.960855
##########                      Grid_es_energy:           -2.033472
##########           Internal_energy_repulsive:           15.186464

@<TRIPOS>MOLECULE
ZINC000274267583
 43 45 1 0 0
SMALL
USER_CHARGES


@<TRIPOS>ATOM
      1 C1         -0.3528    2.3189   57.1494 C.3     1  ZINC000274267583    0.0200
      2 O2          0.1884    3.2131   56.1751 O.3     1  ZINC000274267583   -0.3100
      3 C3         -0.6857    3.7698   55.2957 C.ar    1  ZINC000274267583    0.1900
      4 C4         -0.2313    4.6604   54.3339 C.ar    1  ZINC000274267583   -0.2300
      5 C5         -1.1218    5.2244   53.4409 C.ar    1  ZINC000274267583    0.0300
      6 C6         -2.4649    4.9024   53.5056 C.ar    1  ZINC000274267583   -0.7200
      7 S7         -3.5981    5.6240   52.3656 S.o2    1  ZINC000274267583    2.7000
      8 O8         -4.8849    5.1306   52.7121 O.2     1  ZINC000274267583   -0.9500
      9 O9         -3.2856    7.0092   52.3114 O.2     1  ZINC000274267583   -0.9500
     10 N10        -3.2482    5.0068   50.8693 N.am    1  ZINC000274267583   -1.1100
     11 C11        -3.3277    3.5627   50.6356 C.3     1  ZINC000274267583    0.2100
     12 H12        -3.1693    3.0341   51.5755 H       1  ZINC000274267583    0.1000
     13 C13        -4.7105    3.2121   50.0808 C.3     1  ZINC000274267583   -0.1800
     14 C14        -4.6730    1.7655   49.5716 C.3     1  ZINC000274267583    0.0600
     15 O15        -3.7632    1.6984   48.4727 O.3     1  ZINC000274267583   -0.3100
     16 C16        -2.5317    2.2512   48.6331 C.ar    1  ZINC000274267583    0.1100
     17 C17        -1.5227    1.8893   47.7470 C.ar    1  ZINC000274267583   -0.1100
     18 C18        -0.2596    2.4308   47.8716 C.ar    1  ZINC000274267583   -0.1600
     19 C19         0.0057    3.3403   48.8843 C.ar    1  ZINC000274267583    0.0900
     20 O20         1.2484    3.8781   49.0085 O.3     1  ZINC000274267583   -0.3200
     21 C21         2.1644    3.6500   47.9356 C.3     1  ZINC000274267583    0.0300
     22 C22        -0.9981    3.7001   49.7692 C.ar    1  ZINC000274267583   -0.1000
     23 C23        -2.2658    3.1555   49.6457 C.ar    1  ZINC000274267583   -0.1400
     24 C24        -2.9202    4.0148   54.4629 C.ar    1  ZINC000274267583    0.0200
     25 C25        -2.0329    3.4440   55.3549 C.ar    1  ZINC000274267583   -0.1700
     26 H26        -1.0859    2.8465   57.7595 H       1  ZINC000274267583    0.0600
     27 H27        -0.8349    1.4811   56.6456 H       1  ZINC000274267583    0.0600
     28 H28         0.4497    1.9467   57.7864 H       1  ZINC000274267583    0.1100
     29 H29         0.8175    4.9127   54.2835 H       1  ZINC000274267583    0.1400
     30 H30        -0.7686    5.9177   52.6920 H       1  ZINC000274267583    0.1400
     31 H31        -2.9903    5.6014   50.1475 H       1  ZINC000274267583    0.4200
     32 H32        -5.4571    3.3047   50.8695 H       1  ZINC000274267583    0.1000
     33 H33        -4.9580    3.8844   49.2593 H       1  ZINC000274267583    0.0900
     34 H34        -4.3346    1.1043   50.3694 H       1  ZINC000274267583    0.0700
     35 H35        -5.6682    1.4660   49.2432 H       1  ZINC000274267583    0.1200
     36 H36        -1.7286    1.1810   46.9581 H       1  ZINC000274267583    0.1400
     37 H37         0.5212    2.1464   47.1818 H       1  ZINC000274267583    0.1400
     38 H38         2.3201    2.5782   47.8125 H       1  ZINC000274267583    0.0600
     39 H39         1.7559    4.0659   47.0146 H       1  ZINC000274267583    0.0600
     40 H40         3.1157    4.1318   48.1613 H       1  ZINC000274267583    0.1000
     41 H41        -0.7913    4.4082   50.5580 H       1  ZINC000274267583    0.1300
     42 H42        -3.9697    3.7645   54.5112 H       1  ZINC000274267583    0.1500
     43 H43        -2.3890    2.7507   56.1024 H       1  ZINC000274267583    0.1400
@<TRIPOS>BOND
     1     1     2    1
     2     1    26    1
     3     1    27    1
     4     1    28    1
     5     2     3    1
     6     3    25   ar
     7     3     4   ar
     8     4     5   ar
     9     4    29    1
    10     5     6   ar
    11     5    30    1
    12     6     7    1
    13     6    24   ar
    14     7     8    2
    15     7     9    2
    16     7    10   am
    17    10    11    1
    18    10    31    1
    19    11    12    1
    20    11    23    1
    21    11    13    1
    22    13    14    1
    23    13    32    1
    24    13    33    1
    25    14    15    1
    26    14    34    1
    27    14    35    1
    28    15    16    1
    29    16    23   ar
    30    16    17   ar
    31    17    18   ar
    32    17    36    1
    33    18    19   ar
    34    18    37    1
    35    19    20    1
    36    19    22   ar
    37    20    21    1
    38    21    38    1
    39    21    39    1
    40    21    40    1
    41    22    23   ar
    42    22    41    1
    43    24    25   ar
    44    24    42    1
    45    25    43    1
@<TRIPOS>SUBSTRUCTURE
     1 ZINC000274267583        1 TEMP              0 ****  ****    0 ROOT


##########                                Name:    ZINC000632456679
##########                DOCK_Rotatable_Bonds:                   6
##########                         Heavy_Atoms:                  24
##########                    Molecular_Weight:              374.82
##########                DOCK_Rotatable_Bonds:                   6
##########                       Formal_Charge:          -0.0299999
##########                     HBond_Acceptors:                   9
##########                        HBond_Donors:                   1
##########                         Heavy_Atoms:                  24
##########                          Grid_Score:          -27.956194
##########                     Grid_vdw_energy:          -27.616629
##########                      Grid_es_energy:           -0.339565
##########           Internal_energy_repulsive:           33.998623

@<TRIPOS>MOLECULE
ZINC000632456679
 40 41 1 0 0
SMALL
USER_CHARGES


@<TRIPOS>ATOM
      1 C1        -12.0117   -2.5022   56.2835 C.3     1  ZINC000632456679   -0.1600
      2 C2        -11.3225   -1.1403   56.1774 C.3     1  ZINC000632456679    0.1900
      3 C3        -12.3787   -0.0334   56.1697 C.3     1  ZINC000632456679   -0.2000
      4 C4        -10.3893   -0.9464   57.3742 C.3     1  ZINC000632456679   -0.6300
      5 S5        -11.1131   -1.7345   58.8390 S.o2    1  ZINC000632456679    2.4100
      6 C6         -9.9955   -1.1774   60.1550 C.3     1  ZINC000632456679   -0.6600
      7 O7        -12.3977   -1.1718   59.0678 O.2     1  ZINC000632456679   -0.9300
      8 O8        -10.9867   -3.1434   58.7042 O.2     1  ZINC000632456679   -0.9300
      9 N9        -10.5449   -1.0819   54.9372 N.am    1  ZINC000632456679   -0.7200
     10 C10        -9.7729   -0.0086   54.6757 C.2     1  ZINC000632456679    0.6200
     11 O11        -9.7232    0.9120   55.4684 O.2     1  ZINC000632456679   -0.5000
     12 C12        -8.9884    0.0494   53.4277 C.2     1  ZINC000632456679   -0.0900
     13 C13        -7.8941    0.8300   53.1837 C.2     1  ZINC000632456679   -0.1300
     14 C14        -7.5334    0.5005   51.8482 C.2     1  ZINC000632456679    0.0400
     15 C15        -6.4017    1.0601   51.0682 C.ar    1  ZINC000632456679   -0.0500
     16 C16        -5.5392    0.2101   50.3795 C.ar    1  ZINC000632456679   -0.0600
     17 C17        -4.4879    0.7350   49.6554 C.ar    1  ZINC000632456679   -0.1100
     18 C18        -4.2878    2.1029   49.6118 C.ar    1  ZINC000632456679   -0.0700
     19 C19        -5.1398    2.9543   50.2931 C.ar    1  ZINC000632456679   -0.0800
     20 Cl20       -4.8814    4.6700   50.2333 Cl      1  ZINC000632456679   -0.0400
     21 C21        -6.2008    2.4399   51.0172 C.ar    1  ZINC000632456679    0.1400
     22 F22        -7.0331    3.2706   51.6823 F       1  ZINC000632456679   -0.1100
     23 N23        -8.3985   -0.3956   51.4441 N.2     1  ZINC000632456679   -0.3200
     24 O24        -9.2051   -0.6609   52.3045 O.3     1  ZINC000632456679    0.1400
     25 H25       -12.6767   -2.6403   55.4309 H       1  ZINC000632456679    0.0900
     26 H26       -11.2593   -3.2907   56.2891 H       1  ZINC000632456679    0.0600
     27 H27       -12.5903   -2.5456   57.2063 H       1  ZINC000632456679    0.0700
     28 H28       -12.9573   -0.0768   57.0924 H       1  ZINC000632456679    0.0800
     29 H29       -11.8877    0.9369   56.0942 H       1  ZINC000632456679    0.0800
     30 H30       -13.0436   -0.1715   55.3171 H       1  ZINC000632456679    0.0900
     31 H31        -9.4221   -1.4001   57.1581 H       1  ZINC000632456679    0.1600
     32 H32       -10.2568    0.1189   57.5630 H       1  ZINC000632456679    0.1400
     33 H33       -10.0077   -0.0886   60.2051 H       1  ZINC000632456679    0.1300
     34 H34       -10.3244   -1.5888   61.1093 H       1  ZINC000632456679    0.1300
     35 H35        -8.9832   -1.5201   59.9412 H       1  ZINC000632456679    0.1300
     36 H36       -10.5855   -1.8158   54.3043 H       1  ZINC000632456679    0.4200
     37 H37        -7.4154    1.5332   53.8493 H       1  ZINC000632456679    0.1900
     38 H38        -5.6928   -0.8584   50.4123 H       1  ZINC000632456679    0.1500
     39 H39        -3.8196    0.0757   49.1215 H       1  ZINC000632456679    0.1500
     40 H40        -3.4631    2.5080   49.0443 H       1  ZINC000632456679    0.1500
@<TRIPOS>BOND
     1     1     2    1
     2     1    25    1
     3     1    26    1
     4     1    27    1
     5     2     3    1
     6     2     4    1
     7     2     9    1
     8     3    28    1
     9     3    29    1
    10     3    30    1
    11     4     5    1
    12     4    31    1
    13     4    32    1
    14     5     6    1
    15     5     7    2
    16     5     8    2
    17     6    33    1
    18     6    34    1
    19     6    35    1
    20     9    10   am
    21     9    36    1
    22    10    11    2
    23    10    12    1
    24    12    24    1
    25    12    13    2
    26    13    14    1
    27    13    37    1
    28    14    15    1
    29    14    23    2
    30    15    21   ar
    31    15    16   ar
    32    16    17   ar
    33    16    38    1
    34    17    18   ar
    35    17    39    1
    36    18    19   ar
    37    18    40    1
    38    19    20    1
    39    19    21   ar
    40    21    22    1
    41    23    24    1
@<TRIPOS>SUBSTRUCTURE
     1 ZINC000632456679        1 TEMP              0 ****  ****    0 ROOT


##########                                Name:    ZINC000742270208
##########                DOCK_Rotatable_Bonds:                   5
##########                         Heavy_Atoms:                  25
##########                    Molecular_Weight:             376.328
##########                DOCK_Rotatable_Bonds:                   5
##########                       Formal_Charge:                0.02
##########                     HBond_Acceptors:                   9
##########                        HBond_Donors:                   0
##########                         Heavy_Atoms:                  25
##########                          Grid_Score:          -27.946768
##########                     Grid_vdw_energy:          -27.620859
##########                      Grid_es_energy:           -0.325910
##########           Internal_energy_repulsive:           12.294764

@<TRIPOS>MOLECULE
ZINC000742270208
 37 38 1 0 0
SMALL
USER_CHARGES


@<TRIPOS>ATOM
      1 C1        -10.4097   -2.4786   56.9133 C.3     1  ZINC000742270208   -0.1400
      2 C2        -11.1526   -1.2317   56.4293 C.3     1  ZINC000742270208   -0.1400
      3 C3        -12.2744   -0.8926   57.4129 C.3     1  ZINC000742270208   -0.1400
      4 C4        -10.1908   -0.0746   56.3460 C.2     1  ZINC000742270208    0.4000
      5 O5        -10.0643    0.6778   57.2883 O.2     1  ZINC000742270208   -0.4300
      6 C6         -9.4049    0.1421   55.1207 C.ar    1  ZINC000742270208   -0.1000
      7 C7         -9.4672   -0.7821   54.0730 C.ar    1  ZINC000742270208   -0.0900
      8 C8         -8.7278   -0.5719   52.9282 C.ar    1  ZINC000742270208   -0.0200
      9 C9         -7.9253    0.5499   52.8146 C.ar    1  ZINC000742270208   -0.6800
     10 S10        -6.9844    0.8094   51.3477 S.o2    1  ZINC000742270208    2.6600
     11 O11        -7.2104   -0.3235   50.5203 O.2     1  ZINC000742270208   -0.9300
     12 O12        -7.2502    2.1417   50.9309 O.2     1  ZINC000742270208   -0.9000
     13 O13        -5.5148    0.7674   51.7416 O.3     1  ZINC000742270208   -0.6400
     14 C14        -4.7345    1.6503   51.0624 C.ar    1  ZINC000742270208    0.0500
     15 C15        -4.3705    2.8530   51.6521 C.ar    1  ZINC000742270208    0.0900
     16 F16        -4.7911    3.1477   52.9017 F       1  ZINC000742270208   -0.0900
     17 C17        -3.5752    3.7507   50.9587 C.ar    1  ZINC000742270208    0.1100
     18 F18        -3.2207    4.9214   51.5323 F       1  ZINC000742270208   -0.1000
     19 C19        -3.1432    3.4488   49.6786 C.ar    1  ZINC000742270208   -0.1100
     20 C20        -3.5055    2.2500   49.0885 C.ar    1  ZINC000742270208    0.1200
     21 F21        -3.0826    1.9576   47.8391 F       1  ZINC000742270208   -0.1000
     22 C22        -4.2963    1.3473   49.7806 C.ar    1  ZINC000742270208    0.1200
     23 F23        -4.6492    0.1774   49.2045 F       1  ZINC000742270208   -0.0900
     24 C24        -7.8583    1.4693   53.8470 C.ar    1  ZINC000742270208   -0.0300
     25 C25        -8.5964    1.2765   54.9957 C.ar    1  ZINC000742270208   -0.0800
     26 H26       -11.1054   -3.3156   56.9736 H       1  ZINC000742270208    0.0700
     27 H27        -9.6105   -2.7202   56.2126 H       1  ZINC000742270208    0.0600
     28 H28        -9.9839   -2.2884   57.8985 H       1  ZINC000742270208    0.0600
     29 H29       -11.5784   -1.4220   55.4441 H       1  ZINC000742270208    0.1000
     30 H30       -11.8486   -0.7023   58.3981 H       1  ZINC000742270208    0.0700
     31 H31       -12.8036   -0.0042   57.0682 H       1  ZINC000742270208    0.0600
     32 H32       -12.9701   -1.7295   57.4733 H       1  ZINC000742270208    0.0700
     33 H33       -10.0924   -1.6584   54.1605 H       1  ZINC000742270208    0.1500
     34 H34        -8.7748   -1.2848   52.1183 H       1  ZINC000742270208    0.1500
     35 H35        -2.5229    4.1495   49.1394 H       1  ZINC000742270208    0.1900
     36 H36        -7.2298    2.3422   53.7509 H       1  ZINC000742270208    0.1500
     37 H37        -8.5431    1.9947   55.8005 H       1  ZINC000742270208    0.1500
@<TRIPOS>BOND
     1     1     2    1
     2     1    26    1
     3     1    27    1
     4     1    28    1
     5     2     3    1
     6     2     4    1
     7     2    29    1
     8     3    30    1
     9     3    31    1
    10     3    32    1
    11     4     5    2
    12     4     6    1
    13     6    25   ar
    14     6     7   ar
    15     7     8   ar
    16     7    33    1
    17     8     9   ar
    18     8    34    1
    19     9    10    1
    20     9    24   ar
    21    10    11    2
    22    10    12    2
    23    10    13    1
    24    13    14    1
    25    14    22   ar
    26    14    15   ar
    27    15    16    1
    28    15    17   ar
    29    17    18    1
    30    17    19   ar
    31    19    20   ar
    32    19    35    1
    33    20    21    1
    34    20    22   ar
    35    22    23    1
    36    24    25   ar
    37    24    36    1
    38    25    37    1
@<TRIPOS>SUBSTRUCTURE
     1 ZINC000742270208        1 TEMP              0 ****  ****    0 ROOT


##########                                Name:    ZINC000876376999
##########                DOCK_Rotatable_Bonds:                   7
##########                         Heavy_Atoms:                  24
##########                    Molecular_Weight:             358.502
##########                DOCK_Rotatable_Bonds:                   7
##########                       Formal_Charge:          -0.0299994
##########                     HBond_Acceptors:                   7
##########                        HBond_Donors:                   2
##########                         Heavy_Atoms:                  24
##########                          Grid_Score:          -27.845533
##########                     Grid_vdw_energy:          -27.836237
##########                      Grid_es_energy:           -0.009297
##########           Internal_energy_repulsive:           33.497044

@<TRIPOS>MOLECULE
ZINC000876376999
 54 56 1 0 0
SMALL
USER_CHARGES


@<TRIPOS>ATOM
      1 C1          1.7488    3.7913   52.6614 C.3     1  ZINC000876376999   -0.1500
      2 C2          2.6090    3.3794   51.4650 C.3     1  ZINC000876376999   -0.1100
      3 C3          1.7574    3.3977   50.1942 C.3     1  ZINC000876376999   -0.0700
      4 C4          1.2089    4.8079   49.9672 C.3     1  ZINC000876376999    0.0900
      5 O5          2.2958    5.7242   49.8231 O.3     1  ZINC000876376999   -0.5600
      6 C6          2.6168    2.9845   48.9972 C.3     1  ZINC000876376999   -0.1100
      7 C7          1.7744    3.0342   47.7206 C.3     1  ZINC000876376999   -0.1400
      8 C8          0.6097    2.0465   47.8434 C.3     1  ZINC000876376999    0.1100
      9 N9         -0.1379    2.3474   49.0719 N.am    1  ZINC000876376999   -0.6300
     10 C10        -1.4686    2.5578   49.0319 C.2     1  ZINC000876376999    0.7100
     11 O11        -2.0618    2.4996   47.9722 O.2     1  ZINC000876376999   -0.5800
     12 N12        -2.1416    2.8330   50.1668 N.am    1  ZINC000876376999   -0.7500
     13 C13        -3.5880    3.0617   50.1234 C.3     1  ZINC000876376999    0.1400
     14 C14        -4.2737    2.2024   51.1926 C.3     1  ZINC000876376999   -0.1100
     15 C15        -5.0500    3.0709   52.1447 C.3     1  ZINC000876376999   -0.1100
     16 C16        -6.5581    3.1687   51.8865 C.3     1  ZINC000876376999   -0.5200
     17 H17        -7.0826    3.8340   52.5864 H       1  ZINC000876376999    0.1500
     18 C18        -6.7522    3.5711   50.4066 C.3     1  ZINC000876376999   -0.1200
     19 C19        -6.6623    2.3570   49.4884 C.3     1  ZINC000876376999   -0.1200
     20 C20        -6.4023    1.0640   50.2949 C.3     1  ZINC000876376999   -0.5300
     21 H21        -6.8112    0.1655   49.8121 H       1  ZINC000876376999    0.1500
     22 C22        -4.8956    0.9839   50.5667 C.3     1  ZINC000876376999   -0.1000
     23 S23        -7.1907    1.4396   51.9161 S.o2    1  ZINC000876376999    2.3700
     24 O24        -6.5582    0.7027   52.9524 O.2     1  ZINC000876376999   -0.9300
     25 O25        -8.6055    1.4337   51.7854 O.2     1  ZINC000876376999   -0.9300
     26 C26         0.5925    2.4142   50.3450 C.3     1  ZINC000876376999    0.1400
     27 H27         1.4280    4.8258   52.5392 H       1  ZINC000876376999    0.0500
     28 H28         0.8738    3.1440   52.7197 H       1  ZINC000876376999    0.0600
     29 H29         2.3319    3.6975   53.5775 H       1  ZINC000876376999    0.0500
     30 H30         3.4387    4.0779   51.3564 H       1  ZINC000876376999    0.0600
     31 H31         2.9989    2.3745   51.6267 H       1  ZINC000876376999    0.0700
     32 H32         0.6010    4.8201   49.0626 H       1  ZINC000876376999    0.0500
     33 H33         0.5969    5.1013   50.8202 H       1  ZINC000876376999    0.0400
     34 H34         2.8798    5.7661   50.5927 H       1  ZINC000876376999    0.3800
     35 H35         3.4603    3.6683   48.9025 H       1  ZINC000876376999    0.0700
     36 H36         2.9870    1.9704   49.1488 H       1  ZINC000876376999    0.0700
     37 H37         1.3834    4.0420   47.5817 H       1  ZINC000876376999    0.0700
     38 H38         2.3931    2.7622   46.8655 H       1  ZINC000876376999    0.0800
     39 H39        -0.0486    2.1488   46.9807 H       1  ZINC000876376999    0.0700
     40 H40         0.9971    1.0289   47.8915 H       1  ZINC000876376999    0.0700
     41 H41        -1.6683    2.8796   51.0122 H       1  ZINC000876376999    0.3900
     42 H42        -3.7953    4.1145   50.3154 H       1  ZINC000876376999    0.0800
     43 H43        -3.9695    2.7899   49.1392 H       1  ZINC000876376999    0.0700
     44 H44        -3.4153    1.8038   51.8038 H       1  ZINC000876376999    0.0900
     45 H45        -4.8940    2.7011   53.1733 H       1  ZINC000876376999    0.0900
     46 H46        -4.6248    4.0895   52.1284 H       1  ZINC000876376999    0.0900
     47 H47        -7.7436    4.0203   50.2923 H       1  ZINC000876376999    0.0800
     48 H48        -6.0073    4.3080   50.1209 H       1  ZINC000876376999    0.0900
     49 H49        -7.6127    2.2531   48.9559 H       1  ZINC000876376999    0.0800
     50 H50        -5.8736    2.5034   48.7563 H       1  ZINC000876376999    0.0900
     51 H51        -4.3788    0.7665   49.6157 H       1  ZINC000876376999    0.0900
     52 H52        -4.7024    0.1114   51.2153 H       1  ZINC000876376999    0.0900
     53 H53         0.9786    1.4265   50.5970 H       1  ZINC000876376999    0.0600
     54 H54        -0.0771    2.7591   51.1329 H       1  ZINC000876376999    0.1000
@<TRIPOS>BOND
     1     1     2    1
     2     1    27    1
     3     1    28    1
     4     1    29    1
     5     2     3    1
     6     2    30    1
     7     2    31    1
     8     3    26    1
     9     3     4    1
    10     3     6    1
    11     4     5    1
    12     4    32    1
    13     4    33    1
    14     5    34    1
    15     6     7    1
    16     6    35    1
    17     6    36    1
    18     7     8    1
    19     7    37    1
    20     7    38    1
    21     8     9    1
    22     8    39    1
    23     8    40    1
    24     9    10   am
    25     9    26    1
    26    10    11    2
    27    10    12   am
    28    12    13    1
    29    12    41    1
    30    13    14    1
    31    13    42    1
    32    13    43    1
    33    14    22    1
    34    14    15    1
    35    14    44    1
    36    15    16    1
    37    15    45    1
    38    15    46    1
    39    16    17    1
    40    16    23    1
    41    16    18    1
    42    18    19    1
    43    18    47    1
    44    18    48    1
    45    19    20    1
    46    19    49    1
    47    19    50    1
    48    20    21    1
    49    20    22    1
    50    20    23    1
    51    22    51    1
    52    22    52    1
    53    23    24    2
    54    23    25    2
    55    26    53    1
    56    26    54    1
@<TRIPOS>SUBSTRUCTURE
     1 ZINC000876376999        1 TEMP              0 ****  ****    0 ROOT


##########                                Name:    ZINC000467104849
##########                DOCK_Rotatable_Bonds:                   6
##########                         Heavy_Atoms:                  29
##########                    Molecular_Weight:             421.896
##########                DOCK_Rotatable_Bonds:                   6
##########                       Formal_Charge:           0.0200002
##########                     HBond_Acceptors:                   7
##########                        HBond_Donors:                   0
##########                         Heavy_Atoms:                  29
##########                          Grid_Score:          -27.831411
##########                     Grid_vdw_energy:          -27.773939
##########                      Grid_es_energy:           -0.057473
##########           Internal_energy_repulsive:           71.542107

@<TRIPOS>MOLECULE
ZINC000467104849
 54 56 1 0 0
SMALL
USER_CHARGES


@<TRIPOS>ATOM
      1 C1        -10.3865    5.5882   48.2068 C.3     1  ZINC000467104849    0.0200
      2 O2        -10.9186    4.6105   49.1030 O.3     1  ZINC000467104849   -0.3000
      3 C3        -10.1425    4.2566   50.1622 C.ar    1  ZINC000467104849    0.1000
      4 C4         -8.9007    4.8443   50.3399 C.ar    1  ZINC000467104849   -0.1700
      5 C5         -8.1130    4.4837   51.4177 C.ar    1  ZINC000467104849   -0.1200
      6 C6         -8.5613    3.5368   52.3192 C.ar    1  ZINC000467104849   -0.0800
      7 C7         -7.6986    3.1470   53.4917 C.3     1  ZINC000467104849   -0.0400
      8 C8         -8.0353    4.0361   54.6905 C.3     1  ZINC000467104849   -0.1300
      9 C9         -7.9597    1.6835   53.8528 C.3     1  ZINC000467104849   -0.1600
     10 C10        -6.2469    3.3233   53.1277 C.2     1  ZINC000467104849    0.5300
     11 O11        -5.5364    4.0421   53.7982 O.2     1  ZINC000467104849   -0.5300
     12 N12        -5.7379    2.6822   52.0569 N.am    1  ZINC000467104849   -0.6100
     13 C13        -6.5802    1.8050   51.2284 C.3     1  ZINC000467104849    0.0600
     14 C14        -6.4020    2.2091   49.7605 C.3     1  ZINC000467104849    0.0500
     15 O15        -5.0078    2.2336   49.4450 O.3     1  ZINC000467104849   -0.3700
     16 C16        -4.2555    3.1930   50.1915 C.3     1  ZINC000467104849    0.1300
     17 H17        -4.6745    4.1869   50.0338 H       1  ZINC000467104849    0.0800
     18 C18        -2.8199    3.1735   49.7338 C.ar    1  ZINC000467104849   -0.0900
     19 C19        -1.8453    3.7964   50.4906 C.ar    1  ZINC000467104849   -0.0500
     20 C20        -0.5279    3.7796   50.0723 C.ar    1  ZINC000467104849   -0.1400
     21 C21        -0.1840    3.1383   48.8950 C.ar    1  ZINC000467104849    0.1200
     22 F22         1.1033    3.1209   48.4856 F       1  ZINC000467104849   -0.1200
     23 C23        -1.1615    2.5136   48.1367 C.ar    1  ZINC000467104849   -0.0800
     24 Cl24       -0.7328    1.7085   46.6597 Cl      1  ZINC000467104849   -0.0400
     25 C25        -2.4779    2.5279   48.5601 C.ar    1  ZINC000467104849   -0.0700
     26 C26        -4.3252    2.8436   51.6782 C.3     1  ZINC000467104849    0.0900
     27 C27        -9.8001    2.9466   52.1479 C.ar    1  ZINC000467104849   -0.1600
     28 C28       -10.5965    3.3073   51.0733 C.ar    1  ZINC000467104849    0.1100
     29 O29       -11.8151    2.7278   50.9034 O.3     1  ZINC000467104849   -0.3000
     30 C30       -12.2152    1.7611   51.8768 C.3     1  ZINC000467104849    0.0200
     31 H31       -11.1045    5.7787   47.4091 H       1  ZINC000467104849    0.1000
     32 H32       -10.1938    6.5130   48.7508 H       1  ZINC000467104849    0.0600
     33 H33        -9.4554    5.2187   47.7772 H       1  ZINC000467104849    0.0600
     34 H34        -8.5477    5.5838   49.6365 H       1  ZINC000467104849    0.1400
     35 H35        -7.1450    4.9425   51.5551 H       1  ZINC000467104849    0.1300
     36 H36        -9.0597    3.8435   55.0093 H       1  ZINC000467104849    0.0700
     37 H37        -7.3520    3.8148   55.5104 H       1  ZINC000467104849    0.0700
     38 H38        -7.9342    5.0835   54.4059 H       1  ZINC000467104849    0.0700
     39 H39        -7.6365    1.0434   53.0319 H       1  ZINC000467104849    0.0700
     40 H40        -7.4034    1.4268   54.7544 H       1  ZINC000467104849    0.0700
     41 H41        -9.0253    1.5375   54.0296 H       1  ZINC000467104849    0.0700
     42 H42        -6.2739    0.7676   51.3633 H       1  ZINC000467104849    0.0800
     43 H43        -7.6251    1.9202   51.5166 H       1  ZINC000467104849    0.1100
     44 H44        -6.9076    1.4866   49.1200 H       1  ZINC000467104849    0.1100
     45 H45        -6.8287    3.1994   49.6012 H       1  ZINC000467104849    0.0600
     46 H46        -2.1134    4.2969   51.4093 H       1  ZINC000467104849    0.1500
     47 H47         0.2329    4.2670   50.6639 H       1  ZINC000467104849    0.1500
     48 H48        -3.2401    2.0409   47.9699 H       1  ZINC000467104849    0.1500
     49 H49        -3.8755    3.6446   52.2650 H       1  ZINC000467104849    0.1100
     50 H50        -3.7929    1.9103   51.8614 H       1  ZINC000467104849    0.0800
     51 H51       -10.1482    2.2071   52.8538 H       1  ZINC000467104849    0.1400
     52 H52       -11.4991    0.9394   51.8884 H       1  ZINC000467104849    0.0600
     53 H53       -12.2478    2.2286   52.8610 H       1  ZINC000467104849    0.0600
     54 H54       -13.2037    1.3782   51.6235 H       1  ZINC000467104849    0.1000
@<TRIPOS>BOND
     1     1     2    1
     2     1    31    1
     3     1    32    1
     4     1    33    1
     5     2     3    1
     6     3    28   ar
     7     3     4   ar
     8     4     5   ar
     9     4    34    1
    10     5     6   ar
    11     5    35    1
    12     6     7    1
    13     6    27   ar
    14     7     8    1
    15     7     9    1
    16     7    10    1
    17     8    36    1
    18     8    37    1
    19     8    38    1
    20     9    39    1
    21     9    40    1
    22     9    41    1
    23    10    11    2
    24    10    12   am
    25    12    26    1
    26    12    13    1
    27    13    14    1
    28    13    42    1
    29    13    43    1
    30    14    15    1
    31    14    44    1
    32    14    45    1
    33    15    16    1
    34    16    17    1
    35    16    18    1
    36    16    26    1
    37    18    25   ar
    38    18    19   ar
    39    19    20   ar
    40    19    46    1
    41    20    21   ar
    42    20    47    1
    43    21    22    1
    44    21    23   ar
    45    23    24    1
    46    23    25   ar
    47    25    48    1
    48    26    49    1
    49    26    50    1
    50    27    28   ar
    51    27    51    1
    52    28    29    1
    53    29    30    1
    54    30    52    1
    55    30    53    1
    56    30    54    1
@<TRIPOS>SUBSTRUCTURE
     1 ZINC000467104849        1 TEMP              0 ****  ****    0 ROOT


##########                                Name:    ZINC000444205493
##########                DOCK_Rotatable_Bonds:                   4
##########                         Heavy_Atoms:                  24
##########                    Molecular_Weight:             415.351
##########                DOCK_Rotatable_Bonds:                   4
##########                       Formal_Charge:         -0.00999995
##########                     HBond_Acceptors:                   6
##########                        HBond_Donors:                   1
##########                         Heavy_Atoms:                  24
##########                          Grid_Score:          -27.828676
##########                     Grid_vdw_energy:          -28.129534
##########                      Grid_es_energy:            0.300858
##########           Internal_energy_repulsive:          154.060669

@<TRIPOS>MOLECULE
ZINC000444205493
 47 49 1 0 0
SMALL
USER_CHARGES


@<TRIPOS>ATOM
      1 C1          4.7665    0.2589   45.7053 C.3     1  ZINC000444205493   -0.1700
      2 C2          3.7890    1.0893   46.4965 C.2     1  ZINC000444205493    0.5100
      3 O3          3.3950    2.1476   46.0540 O.2     1  ZINC000444205493   -0.5100
      4 N4          3.3528    0.6560   47.6958 N.am    1  ZINC000444205493   -0.6800
      5 C5          2.4450    1.4272   48.4306 C.ar    1  ZINC000444205493    0.2300
      6 C6          1.9560    2.6152   47.9047 C.ar    1  ZINC000444205493   -0.1400
      7 C7          1.0596    3.3740   48.6322 C.ar    1  ZINC000444205493    0.0200
      8 C8          0.6495    2.9520   49.8833 C.ar    1  ZINC000444205493   -0.6900
      9 S9         -0.4935    3.9234   50.8077 S.o2    1  ZINC000444205493    2.7100
     10 O10        -0.2514    3.6327   52.1774 O.2     1  ZINC000444205493   -0.9500
     11 O11        -0.4313    5.2370   50.2691 O.2     1  ZINC000444205493   -0.9500
     12 N12        -2.0100    3.3506   50.4691 N.am    1  ZINC000444205493   -1.0100
     13 C13        -2.6356    3.3091   49.1338 C.3     1  ZINC000444205493    0.1200
     14 C14        -3.7016    2.1864   49.2260 C.3     1  ZINC000444205493   -0.1200
     15 C15        -4.2029    2.3577   50.6731 C.3     1  ZINC000444205493   -0.0700
     16 C16        -5.3094    3.4151   50.7459 C.3     1  ZINC000444205493   -0.1100
     17 C17        -6.6192    2.5840   50.7632 C.3     1  ZINC000444205493   -0.1200
     18 C18        -6.2349    1.3510   51.6200 C.3     1  ZINC000444205493   -0.1000
     19 H19        -6.2956    1.5903   52.6817 H       1  ZINC000444205493    0.0700
     20 C20        -7.1416    0.1644   51.2874 C.3     1  ZINC000444205493   -0.1500
     21 C21        -4.7739    1.0485   51.2166 C.3     1  ZINC000444205493   -0.1100
     22 C22        -2.9558    2.7918   51.4503 C.3     1  ZINC000444205493    0.1300
     23 C23         1.1339    1.7688   50.4106 C.ar    1  ZINC000444205493    0.0300
     24 C24         2.0265    1.0025   49.6860 C.ar    1  ZINC000444205493   -0.1500
     25 Br25        2.6887   -0.6153   50.4075 Br      1  ZINC000444205493   -0.0300
     26 H26         5.0013    0.7671   44.7701 H       1  ZINC000444205493    0.1000
     27 H27         5.6799    0.1230   46.2843 H       1  ZINC000444205493    0.1000
     28 H28         4.3251   -0.7140   45.4892 H       1  ZINC000444205493    0.1000
     29 H29         3.6680   -0.1904   48.0498 H       1  ZINC000444205493    0.4200
     30 H30         2.2763    2.9462   46.9278 H       1  ZINC000444205493    0.1600
     31 H31         0.6790    4.2984   48.2233 H       1  ZINC000444205493    0.1500
     32 H32        -3.1096    4.2643   48.9076 H       1  ZINC000444205493    0.0800
     33 H33        -1.8925    3.0648   48.3747 H       1  ZINC000444205493    0.0800
     34 H34        -4.5074    2.3525   48.5108 H       1  ZINC000444205493    0.0900
     35 H35        -3.2496    1.2051   49.0824 H       1  ZINC000444205493    0.0800
     36 H36        -5.2172    4.0028   51.6593 H       1  ZINC000444205493    0.0700
     37 H37        -5.2785    4.0620   49.8692 H       1  ZINC000444205493    0.0700
     38 H38        -7.4260    3.1451   51.2347 H       1  ZINC000444205493    0.0700
     39 H39        -6.8971    2.2810   49.7538 H       1  ZINC000444205493    0.0700
     40 H40        -7.0545   -0.0735   50.2272 H       1  ZINC000444205493    0.0500
     41 H41        -6.8410   -0.6999   51.8796 H       1  ZINC000444205493    0.0500
     42 H42        -8.1755    0.4211   51.5184 H       1  ZINC000444205493    0.0500
     43 H43        -4.7498    0.2798   50.4442 H       1  ZINC000444205493    0.0700
     44 H44        -4.2041    0.7239   52.0872 H       1  ZINC000444205493    0.0700
     45 H45        -2.5134    1.9323   51.9538 H       1  ZINC000444205493    0.0700
     46 H46        -3.2202    3.5561   52.1811 H       1  ZINC000444205493    0.0800
     47 H47         0.8113    1.4416   51.3879 H       1  ZINC000444205493    0.1500
@<TRIPOS>BOND
     1     1     2    1
     2     1    26    1
     3     1    27    1
     4     1    28    1
     5     2     3    2
     6     2     4   am
     7     4     5    1
     8     4    29    1
     9     5    24   ar
    10     5     6   ar
    11     6     7   ar
    12     6    30    1
    13     7     8   ar
    14     7    31    1
    15     8     9    1
    16     8    23   ar
    17     9    10    2
    18     9    11    2
    19     9    12   am
    20    12    22    1
    21    12    13    1
    22    13    14    1
    23    13    32    1
    24    13    33    1
    25    14    15    1
    26    14    34    1
    27    14    35    1
    28    15    21    1
    29    15    16    1
    30    15    22    1
    31    16    17    1
    32    16    36    1
    33    16    37    1
    34    17    18    1
    35    17    38    1
    36    17    39    1
    37    18    19    1
    38    18    20    1
    39    18    21    1
    40    20    40    1
    41    20    41    1
    42    20    42    1
    43    21    43    1
    44    21    44    1
    45    22    45    1
    46    22    46    1
    47    23    24   ar
    48    23    47    1
    49    24    25    1
@<TRIPOS>SUBSTRUCTURE
     1 ZINC000444205493        1 TEMP              0 ****  ****    0 ROOT


##########                                Name:    ZINC000154446008
##########                DOCK_Rotatable_Bonds:                   5
##########                         Heavy_Atoms:                  24
##########                    Molecular_Weight:              349.41
##########                DOCK_Rotatable_Bonds:                   5
##########                       Formal_Charge:          -0.0199999
##########                     HBond_Acceptors:                   8
##########                        HBond_Donors:                   0
##########                         Heavy_Atoms:                  24
##########                          Grid_Score:          -27.826473
##########                     Grid_vdw_energy:          -27.582823
##########                      Grid_es_energy:           -0.243650
##########           Internal_energy_repulsive:           13.577538

@<TRIPOS>MOLECULE
ZINC000154446008
 43 45 1 0 0
SMALL
USER_CHARGES


@<TRIPOS>ATOM
      1 O1         -4.8500    4.7561   49.9996 O.2     1  ZINC000154446008   -0.5000
      2 C2         -4.6423    3.5591   49.9291 C.2     1  ZINC000154446008    0.5900
      3 C3         -3.3556    3.0666   49.4284 C.2     1  ZINC000154446008   -0.2300
      4 C4         -3.1444    2.5091   48.1988 C.2     1  ZINC000154446008   -0.0600
      5 C5         -1.8386    2.1339   47.9890 C.2     1  ZINC000154446008   -0.0500
      6 C6         -1.0078    2.3748   49.0100 C.2     1  ZINC000154446008   -0.2100
      7 N7          0.4376    2.0554   49.0086 N.pl3   1  ZINC000154446008    0.0500
      8 O8          1.1205    2.3194   49.9821 O.2     1  ZINC000154446008   -0.1300
      9 O9          0.9441    1.5288   48.0341 O.2     1  ZINC000154446008   -0.1500
     10 S10        -1.8353    3.1057   50.3108 S.3     1  ZINC000154446008    0.3500
     11 N11        -5.5933    2.6862   50.3167 N.am    1  ZINC000154446008   -0.6100
     12 C12        -5.3519    1.2381   50.2486 C.3     1  ZINC000154446008    0.0800
     13 C13        -5.5962    0.6347   51.6373 C.3     1  ZINC000154446008    0.0900
     14 N14        -6.8929    1.1139   52.1360 N.am    1  ZINC000154446008   -0.6100
     15 C15        -7.8435    0.2410   52.5245 C.2     1  ZINC000154446008    0.5500
     16 O16        -7.6320   -0.9551   52.4641 O.2     1  ZINC000154446008   -0.5300
     17 C17        -9.1368    0.7351   53.0217 C.2     1  ZINC000154446008   -0.1500
     18 C18        -9.2466    1.0008   54.3054 C.2     1  ZINC000154446008   -0.1100
     19 C19       -10.5065    1.5012   54.9496 C.3     1  ZINC000154446008   -0.1000
     20 C20       -11.4599    2.0497   53.8859 C.3     1  ZINC000154446008   -0.1200
     21 C21       -11.5936    1.0080   52.7682 C.3     1  ZINC000154446008   -0.1200
     22 C22       -10.2529    0.9128   52.0341 C.3     1  ZINC000154446008   -0.0700
     23 C23        -7.1342    2.5621   52.2042 C.3     1  ZINC000154446008    0.1000
     24 C24        -6.8879    3.1655   50.8208 C.3     1  ZINC000154446008    0.1000
     25 H25        -3.9256    2.3765   47.4649 H       1  ZINC000154446008    0.1800
     26 H26        -1.5077    1.6777   47.0678 H       1  ZINC000154446008    0.1800
     27 H27        -6.0345    0.7869   49.5285 H       1  ZINC000154446008    0.0900
     28 H28        -4.3215    1.0529   49.9453 H       1  ZINC000154446008    0.0900
     29 H29        -5.6109   -0.4529   51.5662 H       1  ZINC000154446008    0.1100
     30 H30        -4.8040    0.9486   52.3170 H       1  ZINC000154446008    0.0800
     31 H31        -8.3801    0.8497   54.9322 H       1  ZINC000154446008    0.1100
     32 H32       -10.9908    0.6819   55.4808 H       1  ZINC000154446008    0.0900
     33 H33       -10.2607    2.2929   55.6573 H       1  ZINC000154446008    0.0800
     34 H34       -12.4371    2.2365   54.3312 H       1  ZINC000154446008    0.0700
     35 H35       -11.0577    2.9765   53.4766 H       1  ZINC000154446008    0.0700
     36 H36       -11.8487    0.0398   53.1987 H       1  ZINC000154446008    0.0700
     37 H37       -12.3712    1.3179   52.0700 H       1  ZINC000154446008    0.0700
     38 H38       -10.0911    1.8235   51.4575 H       1  ZINC000154446008    0.0800
     39 H39       -10.2711    0.0580   51.3579 H       1  ZINC000154446008    0.0700
     40 H40        -8.1646    2.7473   52.5075 H       1  ZINC000154446008    0.1100
     41 H41        -6.4516    3.0132   52.9243 H       1  ZINC000154446008    0.0800
     42 H42        -6.8735    4.2530   50.8933 H       1  ZINC000154446008    0.1100
     43 H43        -7.6785    2.8524   50.1390 H       1  ZINC000154446008    0.0800
@<TRIPOS>BOND
     1     1     2    2
     2     2     3    1
     3     2    11   am
     4     3    10    1
     5     3     4    2
     6     4     5    1
     7     4    25    1
     8     5     6    2
     9     5    26    1
    10     6     7    1
    11     6    10    1
    12     7     8    2
    13     7     9    2
    14    11    24    1
    15    11    12    1
    16    12    13    1
    17    12    27    1
    18    12    28    1
    19    13    14    1
    20    13    29    1
    21    13    30    1
    22    14    15   am
    23    14    23    1
    24    15    16    2
    25    15    17    1
    26    17    22    1
    27    17    18    2
    28    18    19    1
    29    18    31    1
    30    19    20    1
    31    19    32    1
    32    19    33    1
    33    20    21    1
    34    20    34    1
    35    20    35    1
    36    21    22    1
    37    21    36    1
    38    21    37    1
    39    22    38    1
    40    22    39    1
    41    23    24    1
    42    23    40    1
    43    23    41    1
    44    24    42    1
    45    24    43    1
@<TRIPOS>SUBSTRUCTURE
     1 ZINC000154446008        1 TEMP              0 ****  ****    0 ROOT


##########                                Name:    ZINC001199210165
##########                DOCK_Rotatable_Bonds:                   5
##########                         Heavy_Atoms:                  23
##########                    Molecular_Weight:             375.225
##########                DOCK_Rotatable_Bonds:                   5
##########                       Formal_Charge:         -0.00999999
##########                     HBond_Acceptors:                   6
##########                        HBond_Donors:                   2
##########                         Heavy_Atoms:                  23
##########                          Grid_Score:          -27.823311
##########                     Grid_vdw_energy:          -28.707415
##########                      Grid_es_energy:            0.884105
##########           Internal_energy_repulsive:           11.615666

@<TRIPOS>MOLECULE
ZINC001199210165
 38 40 1 0 0
SMALL
USER_CHARGES


@<TRIPOS>ATOM
      1 C1          2.2421    2.5343   52.1338 C.3     1  ZINC001199210165   -0.1700
      2 C2          2.4351    2.3148   50.6320 C.3     1  ZINC001199210165    0.0800
      3 C3          1.8480    0.9588   50.2352 C.3     1  ZINC001199210165   -0.1500
      4 O4          1.7688    3.3522   49.9094 O.3     1  ZINC001199210165   -0.3000
      5 C5          0.6349    3.0111   49.2470 C.ar    1  ZINC001199210165    0.3300
      6 C6         -0.5645    2.9212   49.9405 C.ar    1  ZINC001199210165   -0.1300
      7 C7         -1.7228    2.5690   49.2449 C.ar    1  ZINC001199210165   -0.0600
      8 C8         -3.0254    2.4611   49.9418 C.2     1  ZINC001199210165    0.5700
      9 O9         -3.1963    3.0303   51.0018 O.2     1  ZINC001199210165   -0.4900
     10 N10        -4.0208    1.7315   49.4004 N.am    1  ZINC001199210165   -0.6600
     11 C11        -5.2503    1.6296   50.0582 C.ar    1  ZINC001199210165    0.2000
     12 C12        -6.0859    2.7445   50.1410 C.ar    1  ZINC001199210165   -0.1500
     13 C13        -7.2885    2.6637   50.7781 C.ar    1  ZINC001199210165   -0.0200
     14 C14        -7.6919    1.4543   51.3551 C.ar    1  ZINC001199210165   -0.1700
     15 C15        -8.8801    1.0309   52.0907 C.2     1  ZINC001199210165    0.0900
     16 Br16      -10.3712    2.1130   52.5169 Br      1  ZINC001199210165    0.0600
     17 N17        -8.7298   -0.2256   52.4006 N.2     1  ZINC001199210165   -0.2100
     18 N18        -7.5031   -0.6956   51.9202 N.pl3   1  ZINC001199210165   -0.4900
     19 C19        -6.8536    0.3249   51.2753 C.ar    1  ZINC001199210165    0.1500
     20 C20        -5.6317    0.4234   50.6168 C.ar    1  ZINC001199210165   -0.1700
     21 C21        -1.6200    2.3213   47.8714 C.ar    1  ZINC001199210165   -0.1900
     22 C22        -0.3883    2.4329   47.2588 C.ar    1  ZINC001199210165    0.1400
     23 N23         0.6838    2.7731   47.9474 N.ar    1  ZINC001199210165   -0.5200
     24 H24         1.1781    2.5160   52.3699 H       1  ZINC001199210165    0.0600
     25 H25         2.7503    1.7432   52.6850 H       1  ZINC001199210165    0.0700
     26 H26         2.6603    3.5004   52.4165 H       1  ZINC001199210165    0.0600
     27 H27         3.4990    2.3332   50.3959 H       1  ZINC001199210165    0.0900
     28 H28         0.7840    0.9404   50.4713 H       1  ZINC001199210165    0.0700
     29 H29         1.9856    0.8024   49.1652 H       1  ZINC001199210165    0.0600
     30 H30         2.3562    0.1676   50.7864 H       1  ZINC001199210165    0.0800
     31 H31        -0.6009    3.1203   51.0014 H       1  ZINC001199210165    0.1600
     32 H32        -3.8844    1.2771   48.5543 H       1  ZINC001199210165    0.4100
     33 H33        -5.7771    3.6793   49.6969 H       1  ZINC001199210165    0.1500
     34 H34        -7.9286    3.5316   50.8377 H       1  ZINC001199210165    0.1400
     35 H35        -7.1663   -1.5990   52.0261 H       1  ZINC001199210165    0.4500
     36 H36        -4.9831   -0.4371   50.5451 H       1  ZINC001199210165    0.1400
     37 H37        -2.4931    2.0460   47.2983 H       1  ZINC001199210165    0.1400
     38 H38        -0.3019    2.2427   46.1992 H       1  ZINC001199210165    0.1700
@<TRIPOS>BOND
     1     1     2    1
     2     1    24    1
     3     1    25    1
     4     1    26    1
     5     2     3    1
     6     2     4    1
     7     2    27    1
     8     3    28    1
     9     3    29    1
    10     3    30    1
    11     4     5    1
    12     5    23   ar
    13     5     6   ar
    14     6     7   ar
    15     6    31    1
    16     7     8    1
    17     7    21   ar
    18     8     9    2
    19     8    10   am
    20    10    11    1
    21    10    32    1
    22    11    20   ar
    23    11    12   ar
    24    12    13   ar
    25    12    33    1
    26    13    14   ar
    27    13    34    1
    28    14    19   ar
    29    14    15    1
    30    15    16    1
    31    15    17    2
    32    17    18    1
    33    18    19    1
    34    18    35    1
    35    19    20   ar
    36    20    36    1
    37    21    22   ar
    38    21    37    1
    39    22    23   ar
    40    22    38    1
@<TRIPOS>SUBSTRUCTURE
     1 ZINC001199210165        1 TEMP              0 ****  ****    0 ROOT


##########                                Name:    ZINC001079355651
##########                DOCK_Rotatable_Bonds:                   5
##########                         Heavy_Atoms:                  25
##########                    Molecular_Weight:             353.851
##########                DOCK_Rotatable_Bonds:                   5
##########                       Formal_Charge:           0.0199997
##########                     HBond_Acceptors:                   5
##########                        HBond_Donors:                   1
##########                         Heavy_Atoms:                  25
##########                          Grid_Score:          -27.821268
##########                     Grid_vdw_energy:          -27.942463
##########                      Grid_es_energy:            0.121194
##########           Internal_energy_repulsive:            4.567016

@<TRIPOS>MOLECULE
ZINC001079355651
 45 47 1 0 0
SMALL
USER_CHARGES


@<TRIPOS>ATOM
      1 C1        -10.6270    2.7755   53.4818 C.3     1  ZINC001079355651   -0.1500
      2 C2         -9.4484    1.9522   54.0054 C.3     1  ZINC001079355651   -0.1000
      3 H3         -8.9194    2.5020   54.7837 H       1  ZINC001079355651    0.0900
      4 C4         -8.4866    1.5984   52.8508 C.3     1  ZINC001079355651    0.0300
      5 N5         -8.0237    0.2206   53.1581 N.3     1  ZINC001079355651   -0.5100
      6 C6         -7.5146   -0.4450   51.9517 C.3     1  ZINC001079355651    0.1600
      7 C7         -6.4151    0.3493   51.3799 C.1     1  ZINC001079355651   -0.1400
      8 C8         -5.5382    0.9828   50.9239 C.1     1  ZINC001079355651   -0.1300
      9 C9         -4.4686    1.7556   50.3677 C.ar    1  ZINC001079355651    0.0300
     10 C10        -3.8886    1.3786   49.1560 C.ar    1  ZINC001079355651   -0.0900
     11 C11        -2.8580    2.1271   48.6248 C.ar    1  ZINC001079355651   -0.1000
     12 C12        -2.3995    3.2493   49.2905 C.ar    1  ZINC001079355651   -0.1000
     13 C13        -2.9702    3.6290   50.4937 C.ar    1  ZINC001079355651   -0.0300
     14 Cl14       -2.3874    5.0388   51.3223 Cl      1  ZINC001079355651   -0.0600
     15 C15        -4.0060    2.8919   51.0324 C.ar    1  ZINC001079355651   -0.0900
     16 C16        -9.2364   -0.4655   53.6732 C.3     1  ZINC001079355651    0.0200
     17 C17        -9.9420    0.5955   54.5489 C.3     1  ZINC001079355651    0.1500
     18 H18       -11.0238    0.5160   54.4420 H       1  ZINC001079355651    0.1000
     19 N19        -9.5572    0.4340   55.9533 N.am    1  ZINC001079355651   -0.7100
     20 C20       -10.3151   -0.3160   56.7776 C.2     1  ZINC001079355651    0.5600
     21 O21       -11.3167   -0.8594   56.3557 O.2     1  ZINC001079355651   -0.5300
     22 C22        -9.9269   -0.4780   58.1982 C.ar    1  ZINC001079355651   -0.0900
     23 C23        -8.7521    0.0970   58.6920 C.ar    1  ZINC001079355651   -0.1400
     24 C24        -8.4284   -0.0791   60.0233 C.ar    1  ZINC001079355651    0.1000
     25 N25        -9.2097   -0.7773   60.8233 N.ar    1  ZINC001079355651   -0.4700
     26 C26       -10.3255   -1.3358   60.3985 C.ar    1  ZINC001079355651    0.1000
     27 C27       -10.7283   -1.2052   59.0835 C.ar    1  ZINC001079355651   -0.1200
     28 H28       -11.3220    2.9746   54.2975 H       1  ZINC001079355651    0.0600
     29 H29       -10.2601    3.7193   53.0785 H       1  ZINC001079355651    0.0700
     30 H30       -11.1384    2.2191   52.6964 H       1  ZINC001079355651    0.0600
     31 H31        -9.0139    1.6184   51.8970 H       1  ZINC001079355651    0.0600
     32 H32        -7.6427    2.2882   52.8342 H       1  ZINC001079355651    0.0900
     33 H33        -7.1482   -1.4382   52.2118 H       1  ZINC001079355651    0.0700
     34 H34        -8.3173   -0.5342   51.2196 H       1  ZINC001079355651    0.1100
     35 H35        -4.2451    0.5024   48.6351 H       1  ZINC001079355651    0.1300
     36 H36        -2.4083    1.8357   47.6871 H       1  ZINC001079355651    0.1400
     37 H37        -1.5927    3.8315   48.8704 H       1  ZINC001079355651    0.1400
     38 H38        -4.4507    3.1887   51.9708 H       1  ZINC001079355651    0.1400
     39 H39        -9.8811   -0.7685   52.8482 H       1  ZINC001079355651    0.0600
     40 H40        -8.9571   -1.3298   54.2759 H       1  ZINC001079355651    0.0900
     41 H41        -8.7570    0.8667   56.2897 H       1  ZINC001079355651    0.4000
     42 H42        -8.1070    0.6700   58.0423 H       1  ZINC001079355651    0.1400
     43 H43        -7.5228    0.3608   60.4142 H       1  ZINC001079355651    0.1600
     44 H44       -10.9353   -1.8996   61.0889 H       1  ZINC001079355651    0.1700
     45 H45       -11.6438   -1.6655   58.7424 H       1  ZINC001079355651    0.1500
@<TRIPOS>BOND
     1     1     2    1
     2     1    28    1
     3     1    29    1
     4     1    30    1
     5     2     3    1
     6     2    17    1
     7     2     4    1
     8     4     5    1
     9     4    31    1
    10     4    32    1
    11     5     6    1
    12     5    16    1
    13     6     7    1
    14     6    33    1
    15     6    34    1
    16     7     8    3
    17     8     9    1
    18     9    15   ar
    19     9    10   ar
    20    10    11   ar
    21    10    35    1
    22    11    12   ar
    23    11    36    1
    24    12    13   ar
    25    12    37    1
    26    13    14    1
    27    13    15   ar
    28    15    38    1
    29    16    17    1
    30    16    39    1
    31    16    40    1
    32    17    18    1
    33    17    19    1
    34    19    20   am
    35    19    41    1
    36    20    21    2
    37    20    22    1
    38    22    27   ar
    39    22    23   ar
    40    23    24   ar
    41    23    42    1
    42    24    25   ar
    43    24    43    1
    44    25    26   ar
    45    26    27   ar
    46    26    44    1
    47    27    45    1
@<TRIPOS>SUBSTRUCTURE
     1 ZINC001079355651        1 TEMP              0 ****  ****    0 ROOT


##########                                Name:    ZINC000291574087
##########                DOCK_Rotatable_Bonds:                   8
##########                         Heavy_Atoms:                  23
##########                    Molecular_Weight:             387.249
##########                DOCK_Rotatable_Bonds:                   8
##########                       Formal_Charge:          -0.0400007
##########                     HBond_Acceptors:                   6
##########                        HBond_Donors:                   2
##########                         Heavy_Atoms:                  23
##########                          Grid_Score:          -27.816031
##########                     Grid_vdw_energy:          -26.756258
##########                      Grid_es_energy:           -1.059772
##########           Internal_energy_repulsive:           21.499275

@<TRIPOS>MOLECULE
ZINC000291574087
 43 44 1 0 0
SMALL
USER_CHARGES


@<TRIPOS>ATOM
      1 C1         -2.0228    3.3130   52.6728 C.3     1  ZINC000291574087    0.0200
      2 O2         -2.5481    2.3233   51.7858 O.3     1  ZINC000291574087   -0.3700
      3 C3         -3.4879    2.8329   50.8374 C.3     1  ZINC000291574087    0.1400
      4 C4         -4.2501    4.0069   51.4551 C.3     1  ZINC000291574087   -0.1500
      5 C5         -4.4753    1.7288   50.4541 C.3     1  ZINC000291574087    0.0900
      6 N6         -5.3108    1.3977   51.6109 N.am    1  ZINC000291574087   -0.6900
      7 C7         -6.4737    0.7392   51.4359 C.2     1  ZINC000291574087    0.5100
      8 O8         -6.8293    0.4218   50.3199 O.2     1  ZINC000291574087   -0.5100
      9 C9         -7.3246    0.4001   52.6155 C.2     1  ZINC000291574087    0.5100
     10 O10        -7.6281   -0.7549   52.8330 O.2     1  ZINC000291574087   -0.4900
     11 N11        -7.7553    1.3765   53.4386 N.am    1  ZINC000291574087   -0.6400
     12 C12        -8.5521    1.0590   54.5432 C.ar    1  ZINC000291574087    0.1300
     13 C13        -7.9921    1.0048   55.8124 C.ar    1  ZINC000291574087   -0.1000
     14 C14        -8.7816    0.6914   56.9020 C.ar    1  ZINC000291574087   -0.0400
     15 C15        -8.1734    0.6327   58.2796 C.3     1  ZINC000291574087   -0.1300
     16 C16       -10.1295    0.4318   56.7306 C.ar    1  ZINC000291574087   -0.0900
     17 Br17      -11.2055    0.0045   58.2258 Br      1  ZINC000291574087   -0.0300
     18 C18       -10.6924    0.4846   55.4674 C.ar    1  ZINC000291574087   -0.1000
     19 C19        -9.9092    0.8023   54.3734 C.ar    1  ZINC000291574087    0.0700
     20 F20       -10.4585    0.8538   53.1402 F       1  ZINC000291574087   -0.1300
     21 C21        -2.7443    3.3086   49.5878 C.3     1  ZINC000291574087   -0.1900
     22 C22        -1.2684    2.9276   49.4561 C.3     1  ZINC000291574087   -0.1700
     23 C23        -2.3159    2.2463   48.5734 C.3     1  ZINC000291574087   -0.1600
     24 H24        -1.3176    2.8467   53.3608 H       1  ZINC000291574087    0.0900
     25 H25        -1.5116    4.0836   52.0956 H       1  ZINC000291574087    0.0400
     26 H26        -2.8383    3.7636   53.2384 H       1  ZINC000291574087    0.0500
     27 H27        -3.5467    4.7935   51.7283 H       1  ZINC000291574087    0.0700
     28 H28        -4.9668    4.3956   50.7318 H       1  ZINC000291574087    0.0800
     29 H29        -4.7798    3.6681   52.3454 H       1  ZINC000291574087    0.0700
     30 H30        -5.1075    2.0747   49.6363 H       1  ZINC000291574087    0.0900
     31 H31        -3.9248    0.8427   50.1381 H       1  ZINC000291574087    0.0800
     32 H32        -5.0272    1.6524   52.5029 H       1  ZINC000291574087    0.4200
     33 H33        -7.5127    2.2994   53.2649 H       1  ZINC000291574087    0.4300
     34 H34        -6.9399    1.2072   55.9478 H       1  ZINC000291574087    0.1600
     35 H35        -8.2363    1.6155   58.7467 H       1  ZINC000291574087    0.0800
     36 H36        -8.7159   -0.0930   58.8856 H       1  ZINC000291574087    0.0800
     37 H37        -7.1282    0.3331   58.2028 H       1  ZINC000291574087    0.0800
     38 H38       -11.7450    0.2810   55.3367 H       1  ZINC000291574087    0.1500
     39 H39        -3.0500    4.2804   49.2001 H       1  ZINC000291574087    0.1100
     40 H40        -0.6027    3.6488   48.9819 H       1  ZINC000291574087    0.1000
     41 H41        -0.8271    2.3382   50.2598 H       1  ZINC000291574087    0.1000
     42 H42        -2.5639    1.2086   48.7963 H       1  ZINC000291574087    0.1000
     43 H43        -2.3395    2.5194   47.5184 H       1  ZINC000291574087    0.1000
@<TRIPOS>BOND
     1     1     2    1
     2     1    24    1
     3     1    25    1
     4     1    26    1
     5     2     3    1
     6     3     4    1
     7     3     5    1
     8     3    21    1
     9     4    27    1
    10     4    28    1
    11     4    29    1
    12     5     6    1
    13     5    30    1
    14     5    31    1
    15     6     7   am
    16     6    32    1
    17     7     8    2
    18     7     9    1
    19     9    10    2
    20     9    11   am
    21    11    12    1
    22    11    33    1
    23    12    19   ar
    24    12    13   ar
    25    13    14   ar
    26    13    34    1
    27    14    15    1
    28    14    16   ar
    29    15    35    1
    30    15    36    1
    31    15    37    1
    32    16    17    1
    33    16    18   ar
    34    18    19   ar
    35    18    38    1
    36    19    20    1
    37    21    23    1
    38    21    22    1
    39    21    39    1
    40    22    23    1
    41    22    40    1
    42    22    41    1
    43    23    42    1
    44    23    43    1
@<TRIPOS>SUBSTRUCTURE
     1 ZINC000291574087        1 TEMP              0 ****  ****    0 ROOT


##########                                Name:    ZINC000566738344
##########                DOCK_Rotatable_Bonds:                   5
##########                         Heavy_Atoms:                  23
##########                    Molecular_Weight:             352.478
##########                DOCK_Rotatable_Bonds:                   5
##########                       Formal_Charge:           0.0100005
##########                     HBond_Acceptors:                   7
##########                        HBond_Donors:                   0
##########                         Heavy_Atoms:                  23
##########                          Grid_Score:          -27.791857
##########                     Grid_vdw_energy:          -27.024565
##########                      Grid_es_energy:           -0.767292
##########           Internal_energy_repulsive:           20.858646

@<TRIPOS>MOLECULE
ZINC000566738344
 43 44 1 0 0
SMALL
USER_CHARGES


@<TRIPOS>ATOM
      1 C1         -7.2409    1.8062   54.7600 C.3     1  ZINC000566738344   -0.1300
      2 C2         -7.2887    1.0230   53.4734 C.ar    1  ZINC000566738344   -0.0100
      3 C3         -6.2914    1.1742   52.5377 C.ar    1  ZINC000566738344   -0.1000
      4 C4         -6.3352    0.4512   51.3482 C.ar    1  ZINC000566738344   -0.0500
      5 S5         -5.0565    0.6482   50.1521 S.3     1  ZINC000566738344   -0.0300
      6 C6         -4.7742    2.4401   50.1478 C.3     1  ZINC000566738344   -0.1200
      7 H7         -4.4556    2.7602   51.1398 H       1  ZINC000566738344    0.1200
      8 C8         -3.6866    2.7826   49.1277 C.3     1  ZINC000566738344   -0.1300
      9 C9         -6.0515    3.1489   49.7774 C.2     1  ZINC000566738344    0.5200
     10 O10        -6.9473    2.5393   49.2326 O.2     1  ZINC000566738344   -0.5000
     11 N11        -6.1983    4.4603   50.0515 N.am    1  ZINC000566738344   -0.6000
     12 C12        -5.1156    5.1971   50.7078 C.3     1  ZINC000566738344    0.0600
     13 C13        -7.4406    5.1490   49.6930 C.3     1  ZINC000566738344    0.1500
     14 H14        -7.8810    4.6769   48.8147 H       1  ZINC000566738344    0.1300
     15 C15        -8.4299    5.0774   50.8695 C.3     1  ZINC000566738344   -0.1300
     16 C16        -9.5633    6.0886   50.5581 C.3     1  ZINC000566738344   -0.5900
     17 S17        -8.6407    7.5365   49.9163 S.o2    1  ZINC000566738344    2.4000
     18 O18        -9.3084    8.0511   48.7725 O.2     1  ZINC000566738344   -0.9300
     19 O19        -8.3143    8.4026   50.9946 O.2     1  ZINC000566738344   -0.9300
     20 C20        -7.1430    6.6310   49.3903 C.3     1  ZINC000566738344   -0.6200
     21 C21        -7.3871   -0.4273   51.1022 C.ar    1  ZINC000566738344   -0.1400
     22 C22        -8.3877   -0.5831   52.0342 C.ar    1  ZINC000566738344   -0.0400
     23 C23        -8.3439    0.1374   53.2317 C.ar    1  ZINC000566738344   -0.0400
     24 C24        -9.3834   -0.0224   54.2036 C.1     1  ZINC000566738344    0.2500
     25 N25       -10.2081   -0.1491   54.9747 N.1     1  ZINC000566738344   -0.4100
     26 H26        -6.6942    1.2369   55.5118 H       1  ZINC000566738344    0.0800
     27 H27        -6.7376    2.7575   54.5877 H       1  ZINC000566738344    0.0800
     28 H28        -8.2562    1.9904   55.1112 H       1  ZINC000566738344    0.0700
     29 H29        -5.4741    1.8546   52.7256 H       1  ZINC000566738344    0.1400
     30 H30        -4.0409    2.5441   48.1248 H       1  ZINC000566738344    0.0800
     31 H31        -3.4542    3.8459   49.1875 H       1  ZINC000566738344    0.0800
     32 H32        -2.7898    2.2021   49.3439 H       1  ZINC000566738344    0.0900
     33 H33        -4.4510    5.6162   49.9522 H       1  ZINC000566738344    0.0700
     34 H34        -5.5367    6.0033   51.3086 H       1  ZINC000566738344    0.0800
     35 H35        -4.5533    4.5203   51.3511 H       1  ZINC000566738344    0.0800
     36 H36        -8.8400    4.0708   50.9517 H       1  ZINC000566738344    0.1100
     37 H37        -7.9277    5.3534   51.7967 H       1  ZINC000566738344    0.0900
     38 H38       -10.2377    5.6922   49.7992 H       1  ZINC000566738344    0.1400
     39 H39       -10.1095    6.3488   51.4648 H       1  ZINC000566738344    0.1400
     40 H40        -6.2771    6.9686   49.9597 H       1  ZINC000566738344    0.1400
     41 H41        -6.9725    6.7695   48.3227 H       1  ZINC000566738344    0.1500
     42 H42        -7.4180   -0.9869   50.1790 H       1  ZINC000566738344    0.1200
     43 H43        -9.2035   -1.2644   51.8427 H       1  ZINC000566738344    0.1400
@<TRIPOS>BOND
     1     1     2    1
     2     1    26    1
     3     1    27    1
     4     1    28    1
     5     2    23   ar
     6     2     3   ar
     7     3     4   ar
     8     3    29    1
     9     4     5    1
    10     4    21   ar
    11     5     6    1
    12     6     7    1
    13     6     8    1
    14     6     9    1
    15     8    30    1
    16     8    31    1
    17     8    32    1
    18     9    10    2
    19     9    11   am
    20    11    12    1
    21    11    13    1
    22    12    33    1
    23    12    34    1
    24    12    35    1
    25    13    14    1
    26    13    20    1
    27    13    15    1
    28    15    16    1
    29    15    36    1
    30    15    37    1
    31    16    17    1
    32    16    38    1
    33    16    39    1
    34    17    18    2
    35    17    19    2
    36    17    20    1
    37    20    40    1
    38    20    41    1
    39    21    22   ar
    40    21    42    1
    41    22    23   ar
    42    22    43    1
    43    23    24    1
    44    24    25    3
@<TRIPOS>SUBSTRUCTURE
     1 ZINC000566738344        1 TEMP              0 ****  ****    0 ROOT


##########                                Name:    ZINC000341804698
##########                DOCK_Rotatable_Bonds:                   7
##########                         Heavy_Atoms:                  24
##########                    Molecular_Weight:             342.318
##########                DOCK_Rotatable_Bonds:                   7
##########                       Formal_Charge:                0.02
##########                     HBond_Acceptors:                   8
##########                        HBond_Donors:                   0
##########                         Heavy_Atoms:                  24
##########                          Grid_Score:          -27.781969
##########                     Grid_vdw_energy:          -27.342228
##########                      Grid_es_energy:           -0.439742
##########           Internal_energy_repulsive:           19.135376

@<TRIPOS>MOLECULE
ZINC000341804698
 41 42 1 0 0
SMALL
USER_CHARGES


@<TRIPOS>ATOM
      1 C1         -8.7364   -0.3921   52.0186 C.3     1  ZINC000341804698    0.0300
      2 O2         -7.5631   -0.3030   51.2078 O.3     1  ZINC000341804698   -0.3900
      3 C3         -6.4133    0.1865   51.9010 C.3     1  ZINC000341804698    0.0700
      4 C4         -5.7521    1.2917   51.0751 C.3     1  ZINC000341804698    0.0400
      5 C5         -6.7609    2.2981   50.7056 C.1     1  ZINC000341804698    0.2200
      6 N6         -7.5393    3.0746   50.4205 N.1     1  ZINC000341804698   -0.4200
      7 C7         -4.6490    1.9557   51.9024 C.3     1  ZINC000341804698   -0.1200
      8 C8         -4.0126    3.0844   51.0851 C.3     1  ZINC000341804698    0.1100
      9 N9         -3.5568    2.5384   49.7995 N.am    1  ZINC000341804698   -0.6000
     10 C10        -2.2832    2.7098   49.3934 C.2     1  ZINC000341804698    0.5700
     11 O11        -1.9184    2.2531   48.3277 O.2     1  ZINC000341804698   -0.5200
     12 C12        -1.3297    3.4533   50.2443 C.ar    1  ZINC000341804698   -0.0900
     13 C13        -1.5817    4.7842   50.5807 C.ar    1  ZINC000341804698   -0.1100
     14 C14        -0.6895    5.4753   51.3749 C.ar    1  ZINC000341804698   -0.0800
     15 C15         0.4545    4.8535   51.8394 C.ar    1  ZINC000341804698   -0.1700
     16 C16         0.7140    3.5300   51.5096 C.ar    1  ZINC000341804698    0.1100
     17 O17         1.8406    2.9238   51.9686 O.3     1  ZINC000341804698   -0.3100
     18 C18         2.5784    2.1331   51.0344 C.3     1  ZINC000341804698    0.6000
     19 F19         2.4927    2.7117   49.7635 F       1  ZINC000341804698   -0.1600
     20 F20         3.9188    2.0734   51.4302 F       1  ZINC000341804698   -0.1300
     21 F21         2.0458    0.8401   50.9948 F       1  ZINC000341804698   -0.1600
     22 C22        -0.1774    2.8254   50.7185 C.ar    1  ZINC000341804698   -0.0700
     23 C23        -4.5157    1.8013   48.9653 C.3     1  ZINC000341804698    0.0900
     24 C24        -5.1465    0.6871   49.8063 C.3     1  ZINC000341804698   -0.1200
     25 H25        -8.5513   -1.0690   52.8525 H       1  ZINC000341804698    0.0400
     26 H26        -8.9888    0.5965   52.4022 H       1  ZINC000341804698    0.0500
     27 H27        -9.5641   -0.7715   51.4194 H       1  ZINC000341804698    0.0900
     28 H28        -6.7158    0.5872   52.8684 H       1  ZINC000341804698    0.0700
     29 H29        -5.7050   -0.6285   52.0506 H       1  ZINC000341804698    0.0600
     30 H30        -5.0772    2.3658   52.8171 H       1  ZINC000341804698    0.1000
     31 H31        -3.8890    1.2166   52.1554 H       1  ZINC000341804698    0.0900
     32 H32        -4.7494    3.8681   50.9086 H       1  ZINC000341804698    0.0700
     33 H33        -3.1624    3.4952   51.6296 H       1  ZINC000341804698    0.1100
     34 H34        -2.4743    5.2731   50.2193 H       1  ZINC000341804698    0.1400
     35 H35        -0.8855    6.5052   51.6343 H       1  ZINC000341804698    0.1400
     36 H36         1.1492    5.3993   52.4606 H       1  ZINC000341804698    0.1400
     37 H37         0.0229    1.7957   50.4616 H       1  ZINC000341804698    0.1500
     38 H38        -5.2935    2.4804   48.6159 H       1  ZINC000341804698    0.0800
     39 H39        -3.9976    1.3655   48.1110 H       1  ZINC000341804698    0.1100
     40 H40        -4.3818   -0.0402   50.0791 H       1  ZINC000341804698    0.1000
     41 H41        -5.9288    0.1940   49.2291 H       1  ZINC000341804698    0.0900
@<TRIPOS>BOND
     1     1     2    1
     2     1    25    1
     3     1    26    1
     4     1    27    1
     5     2     3    1
     6     3     4    1
     7     3    28    1
     8     3    29    1
     9     4    24    1
    10     4     5    1
    11     4     7    1
    12     5     6    3
    13     7     8    1
    14     7    30    1
    15     7    31    1
    16     8     9    1
    17     8    32    1
    18     8    33    1
    19     9    10   am
    20     9    23    1
    21    10    11    2
    22    10    12    1
    23    12    22   ar
    24    12    13   ar
    25    13    14   ar
    26    13    34    1
    27    14    15   ar
    28    14    35    1
    29    15    16   ar
    30    15    36    1
    31    16    17    1
    32    16    22   ar
    33    17    18    1
    34    18    19    1
    35    18    20    1
    36    18    21    1
    37    22    37    1
    38    23    24    1
    39    23    38    1
    40    23    39    1
    41    24    40    1
    42    24    41    1
@<TRIPOS>SUBSTRUCTURE
     1 ZINC000341804698        1 TEMP              0 ****  ****    0 ROOT


##########                                Name:    ZINC000375477402
##########                DOCK_Rotatable_Bonds:                   5
##########                         Heavy_Atoms:                  26
##########                    Molecular_Weight:             378.342
##########                DOCK_Rotatable_Bonds:                   5
##########                       Formal_Charge:         -1.2666e-07
##########                     HBond_Acceptors:                   9
##########                        HBond_Donors:                   1
##########                         Heavy_Atoms:                  26
##########                          Grid_Score:          -27.752869
##########                     Grid_vdw_energy:          -27.623196
##########                      Grid_es_energy:           -0.129673
##########           Internal_energy_repulsive:            6.680157

@<TRIPOS>MOLECULE
ZINC000375477402
 45 47 1 0 0
SMALL
USER_CHARGES


@<TRIPOS>ATOM
      1 O1         -8.5826   -0.6991   53.0069 O.2     1  ZINC000375477402   -0.5600
      2 C2         -8.2005    0.4432   52.8409 C.2     1  ZINC000375477402    0.7200
      3 N3         -8.7255    1.4431   53.5765 N.am    1  ZINC000375477402   -0.7300
      4 C4         -9.7609    1.1543   54.5720 C.3     1  ZINC000375477402    0.1800
      5 H5        -10.3398    0.2875   54.2533 H       1  ZINC000375477402    0.1500
      6 C6         -9.1127    0.8644   55.9013 C.ar    1  ZINC000375477402   -0.1300
      7 C7         -7.9948    1.5756   56.2947 C.ar    1  ZINC000375477402   -0.0800
      8 C8         -7.3989    1.3109   57.5138 C.ar    1  ZINC000375477402   -0.0900
      9 C9         -7.9199    0.3344   58.3418 C.ar    1  ZINC000375477402   -0.1100
     10 C10        -9.0393   -0.3795   57.9507 C.ar    1  ZINC000375477402    0.0800
     11 F11        -9.5492   -1.3341   58.7594 F       1  ZINC000375477402   -0.1200
     12 C12        -9.6402   -0.1100   56.7306 C.ar    1  ZINC000375477402    0.1000
     13 F13       -10.7330   -0.8056   56.3467 F       1  ZINC000375477402   -0.1100
     14 C14       -10.6876    2.3639   54.7095 C.3     1  ZINC000375477402    0.4400
     15 F15       -11.6321    2.1163   55.7114 F       1  ZINC000375477402   -0.1600
     16 F16        -9.9338    3.4928   55.0479 F       1  ZINC000375477402   -0.1700
     17 F17       -11.3444    2.5886   53.4948 F       1  ZINC000375477402   -0.1800
     18 N18        -7.2481    0.7088   51.9251 N.am    1  ZINC000375477402   -0.6300
     19 C19        -6.5896   -0.2847   51.0563 C.3     1  ZINC000375477402    0.1000
     20 C20        -6.0904    0.5248   49.8320 C.3     1  ZINC000375477402   -0.1200
     21 C21        -5.6703    1.8565   50.4930 C.3     1  ZINC000375477402   -0.1100
     22 C22        -6.6968    2.0393   51.6212 C.3     1  ZINC000375477402    0.1400
     23 C23        -4.2584    1.7430   51.0541 C.3     1  ZINC000375477402   -0.1100
     24 C24        -3.8422    3.0949   51.6457 C.3     1  ZINC000375477402   -0.1600
     25 C25        -3.9798    4.1752   50.5695 C.3     1  ZINC000375477402    0.0600
     26 O26        -5.3296    4.2132   50.1014 O.3     1  ZINC000375477402   -0.3800
     27 C27        -5.7680    2.9972   49.4890 C.3     1  ZINC000375477402    0.0800
     28 H28        -8.4178    2.3538   53.4468 H       1  ZINC000375477402    0.4000
     29 H29        -7.5861    2.3387   55.6490 H       1  ZINC000375477402    0.1400
     30 H30        -6.5252    1.8674   57.8195 H       1  ZINC000375477402    0.1500
     31 H31        -7.4534    0.1283   59.2937 H       1  ZINC000375477402    0.1500
     32 H32        -5.7485   -0.7441   51.5756 H       1  ZINC000375477402    0.0700
     33 H33        -7.3037   -1.0458   50.7419 H       1  ZINC000375477402    0.0700
     34 H34        -5.2374    0.0358   49.3616 H       1  ZINC000375477402    0.0900
     35 H35        -6.8944    0.6818   49.1130 H       1  ZINC000375477402    0.0800
     36 H36        -7.4911    2.7110   51.2952 H       1  ZINC000375477402    0.0800
     37 H37        -6.2066    2.4428   52.5073 H       1  ZINC000375477402    0.0700
     38 H38        -4.2364    0.9818   51.8339 H       1  ZINC000375477402    0.0700
     39 H39        -3.5700    1.4675   50.2552 H       1  ZINC000375477402    0.0700
     40 H40        -4.4872    3.3374   52.4902 H       1  ZINC000375477402    0.0700
     41 H41        -2.8060    3.0431   51.9798 H       1  ZINC000375477402    0.0800
     42 H42        -3.7143    5.1443   50.9917 H       1  ZINC000375477402    0.1000
     43 H43        -3.3134    3.9464   49.7379 H       1  ZINC000375477402    0.0500
     44 H44        -5.1381    2.7771   48.6272 H       1  ZINC000375477402    0.0600
     45 H45        -6.8025    3.1068   49.1637 H       1  ZINC000375477402    0.1000
@<TRIPOS>BOND
     1     1     2    2
     2     2     3   am
     3     2    18   am
     4     3     4    1
     5     3    28    1
     6     4     5    1
     7     4     6    1
     8     4    14    1
     9     6    12   ar
    10     6     7   ar
    11     7     8   ar
    12     7    29    1
    13     8     9   ar
    14     8    30    1
    15     9    10   ar
    16     9    31    1
    17    10    11    1
    18    10    12   ar
    19    12    13    1
    20    14    15    1
    21    14    16    1
    22    14    17    1
    23    18    22    1
    24    18    19    1
    25    19    20    1
    26    19    32    1
    27    19    33    1
    28    20    21    1
    29    20    34    1
    30    20    35    1
    31    21    27    1
    32    21    22    1
    33    21    23    1
    34    22    36    1
    35    22    37    1
    36    23    24    1
    37    23    38    1
    38    23    39    1
    39    24    25    1
    40    24    40    1
    41    24    41    1
    42    25    26    1
    43    25    42    1
    44    25    43    1
    45    26    27    1
    46    27    44    1
    47    27    45    1
@<TRIPOS>SUBSTRUCTURE
     1 ZINC000375477402        1 TEMP              0 ****  ****    0 ROOT


##########                                Name:    ZINC000338927927
##########                DOCK_Rotatable_Bonds:                   9
##########                         Heavy_Atoms:                  23
##########                    Molecular_Weight:             336.286
##########                DOCK_Rotatable_Bonds:                   9
##########                       Formal_Charge:         -0.00999999
##########                     HBond_Acceptors:                   9
##########                        HBond_Donors:                   2
##########                         Heavy_Atoms:                  23
##########                          Grid_Score:          -27.720842
##########                     Grid_vdw_energy:          -25.887589
##########                      Grid_es_energy:           -1.833254
##########           Internal_energy_repulsive:            8.120876

@<TRIPOS>MOLECULE
ZINC000338927927
 39 39 1 0 0
SMALL
USER_CHARGES


@<TRIPOS>ATOM
      1 C1         -3.0226    4.0966   55.4834 C.3     1  <0>        -0.1600
      2 C2         -1.5820    3.6285   55.2676 C.3     1  <0>        -0.1100
      3 C3         -0.9124    4.5096   54.2112 C.3     1  <0>        -0.1000
      4 H4         -1.0525    5.5588   54.4713 H       1  <0>         0.1400
      5 C5         -1.5324    4.2387   52.8647 C.2     1  <0>         0.5200
      6 O6         -1.9646    5.1567   52.2002 O.2     1  <0>        -0.4700
      7 N7         -1.6068    2.9762   52.3987 N.am    1  <0>        -0.6700
      8 C8         -2.1825    2.7246   51.1485 C.ar    1  <0>         0.2200
      9 C9         -1.3955    2.7445   50.0046 C.ar    1  <0>        -0.2300
     10 C10        -1.9644    2.4957   48.7675 C.ar    1  <0>         0.1700
     11 F11        -1.1969    2.5157   47.6558 F       1  <0>        -0.1300
     12 C12        -3.3177    2.2261   48.6679 C.ar    1  <0>        -0.2500
     13 C13        -4.1088    2.2050   49.8099 C.ar    1  <0>         0.2600
     14 N14        -5.4751    1.9332   49.7089 N.pl3   1  <0>        -0.7400
     15 C15        -5.9676    0.5688   49.9137 C.3     1  <0>         0.0800
     16 C16        -6.7421    0.4986   51.2312 C.3     1  <0>         0.4500
     17 F17        -7.4011   -0.7323   51.3197 F       1  <0>        -0.1800
     18 F18        -5.8523    0.6293   52.3028 F       1  <0>        -0.1700
     19 F19        -7.6813    1.5346   51.2758 F       1  <0>        -0.1800
     20 C20        -3.5392    2.4492   51.0517 C.ar    1  <0>        -0.2000
     21 C21         0.5611    4.1978   54.1576 C.2     1  <0>         0.4600
     22 O22         1.1539    4.2601   53.1067 O.2     1  <0>        -0.4600
     23 O23         1.2148    3.8509   55.2774 O.3     1  <0>        -0.3500
     24 C24         2.6211    3.5156   55.1426 C.3     1  <0>         0.0300
     25 H25        -3.5733    4.0217   54.5458 H       1  <0>         0.0600
     26 H26        -3.4996    3.4689   56.2361 H       1  <0>         0.0600
     27 H27        -3.0211    5.1326   55.8223 H       1  <0>         0.0800
     28 H28        -1.0314    3.7033   56.2053 H       1  <0>         0.0800
     29 H29        -1.5836    2.5925   54.9288 H       1  <0>         0.0800
     30 H30        -1.2612    2.2420   52.9301 H       1  <0>         0.4200
     31 H31        -0.3390    2.9548   50.0802 H       1  <0>         0.1400
     32 H32        -3.7597    2.0322   47.7016 H       1  <0>         0.1400
     33 H33        -6.0977    2.6478   49.5031 H       1  <0>         0.4100
     34 H34        -6.6260    0.2927   49.0900 H       1  <0>         0.1100
     35 H35        -5.1238   -0.1202   49.9510 H       1  <0>         0.1100
     36 H36        -4.1526    2.4332   51.9405 H       1  <0>         0.1500
     37 H37         3.0276    3.2545   56.1197 H       1  <0>         0.1000
     38 H38         2.7294    2.6681   54.4658 H       1  <0>         0.0600
     39 H39         3.1621    4.3726   54.7413 H       1  <0>         0.0600
@<TRIPOS>BOND
     1     1     2    1
     2     1    25    1
     3     1    26    1
     4     1    27    1
     5     2     3    1
     6     2    28    1
     7     2    29    1
     8     3     4    1
     9     3     5    1
    10     3    21    1
    11     5     6    2
    12     5     7   am
    13     7     8    1
    14     7    30    1
    15     8    20   ar
    16     8     9   ar
    17     9    10   ar
    18     9    31    1
    19    10    11    1
    20    10    12   ar
    21    12    13   ar
    22    12    32    1
    23    13    14    1
    24    13    20   ar
    25    14    15    1
    26    14    33    1
    27    15    16    1
    28    15    34    1
    29    15    35    1
    30    16    17    1
    31    16    18    1
    32    16    19    1
    33    20    36    1
    34    21    22    2
    35    21    23    1
    36    23    24    1
    37    24    37    1
    38    24    38    1
    39    24    39    1
@<TRIPOS>SUBSTRUCTURE
     1 <0>         1 TEMP              0 ****  ****    0 ROOT


##########                                Name:    ZINC000446721380
##########                DOCK_Rotatable_Bonds:                   8
##########                         Heavy_Atoms:                  26
##########                    Molecular_Weight:             419.318
##########                DOCK_Rotatable_Bonds:                   8
##########                       Formal_Charge:           0.0199992
##########                     HBond_Acceptors:                   5
##########                        HBond_Donors:                   2
##########                         Heavy_Atoms:                  26
##########                          Grid_Score:          -27.715698
##########                     Grid_vdw_energy:          -27.311190
##########                      Grid_es_energy:           -0.404509
##########           Internal_energy_repulsive:            9.547790

@<TRIPOS>MOLECULE
ZINC000446721380
 49 51 1 0 0
SMALL
USER_CHARGES


@<TRIPOS>ATOM
      1 C1         -8.2389    2.7051   58.6597 C.3     1  ZINC000446721380   -0.1200
      2 C2         -7.8388    2.2674   57.2742 C.ar    1  ZINC000446721380   -0.0300
      3 C3         -6.6558    2.7211   56.7212 C.ar    1  ZINC000446721380   -0.1600
      4 C4         -6.2859    2.3214   55.4501 C.ar    1  ZINC000446721380   -0.0500
      5 C5         -7.0981    1.4674   54.7297 C.ar    1  ZINC000446721380   -0.1500
      6 C6         -6.6941    1.0318   53.3448 C.3     1  ZINC000446721380    0.1900
      7 N7         -6.0775    2.1578   52.6391 N.am    1  ZINC000446721380   -0.7300
      8 C8         -5.1233    1.9324   51.7144 C.2     1  ZINC000446721380    0.7100
      9 O9         -4.7753    0.7945   51.4647 O.2     1  ZINC000446721380   -0.5700
     10 N10        -4.5549    2.9685   51.0663 N.am    1  ZINC000446721380   -0.6900
     11 C11        -3.5637    2.7344   50.1058 C.ar    1  ZINC000446721380    0.2000
     12 C12        -3.9195    2.4357   48.7977 C.ar    1  ZINC000446721380   -0.1200
     13 C13        -2.9391    2.2056   47.8519 C.ar    1  ZINC000446721380   -0.0800
     14 C14        -1.6045    2.2725   48.2066 C.ar    1  ZINC000446721380   -0.1300
     15 C15        -1.2460    2.5694   49.5090 C.ar    1  ZINC000446721380   -0.0700
     16 C16        -2.2215    2.8062   50.4584 C.ar    1  ZINC000446721380   -0.1300
     17 Br17       -1.7309    3.2127   52.2388 Br      1  ZINC000446721380   -0.0500
     18 C18        -8.2860    1.0106   55.2826 C.ar    1  ZINC000446721380    0.1500
     19 O19        -9.0866    0.1700   54.5759 O.3     1  ZINC000446721380   -0.3100
     20 C20       -10.4143    0.6193   54.2981 C.3     1  ZINC000446721380    0.0700
     21 C21       -10.4817    1.1574   52.8673 C.3     1  ZINC000446721380   -0.1200
     22 H22        -9.7197    0.6855   52.2470 H       1  ZINC000446721380    0.1000
     23 C23       -10.3112    2.6961   52.8586 C.3     1  ZINC000446721380   -0.1500
     24 C24       -11.3504    3.1318   51.7944 C.3     1  ZINC000446721380    0.0500
     25 O25       -12.4521    2.2233   52.0077 O.3     1  ZINC000446721380   -0.3800
     26 C26       -11.8830    0.9261   52.2696 C.3     1  ZINC000446721380    0.0500
     27 C27        -8.6520    1.4087   56.5599 C.ar    1  ZINC000446721380   -0.2100
     28 H28        -7.8356    2.0059   59.3922 H       1  ZINC000446721380    0.0800
     29 H29        -7.8443    3.7025   58.8537 H       1  ZINC000446721380    0.0700
     30 H30        -9.3261    2.7234   58.7351 H       1  ZINC000446721380    0.0700
     31 H31        -6.0196    3.3892   57.2828 H       1  ZINC000446721380    0.1300
     32 H32        -5.3614    2.6774   55.0203 H       1  ZINC000446721380    0.1300
     33 H33        -5.9791    0.2121   53.4158 H       1  ZINC000446721380    0.0800
     34 H34        -7.5757    0.6985   52.7971 H       1  ZINC000446721380    0.0800
     35 H35        -6.3561    3.0656   52.8373 H       1  ZINC000446721380    0.4000
     36 H36        -4.8325    3.8763   51.2654 H       1  ZINC000446721380    0.4100
     37 H37        -4.9617    2.3829   48.5197 H       1  ZINC000446721380    0.1500
     38 H38        -3.2156    1.9728   46.8341 H       1  ZINC000446721380    0.1300
     39 H39        -0.8402    2.0922   47.4652 H       1  ZINC000446721380    0.1300
     40 H40        -0.2027    2.6202   49.7831 H       1  ZINC000446721380    0.1400
     41 H41       -11.1096   -0.2132   54.4062 H       1  ZINC000446721380    0.0700
     42 H42       -10.6838    1.4110   54.9972 H       1  ZINC000446721380    0.0700
     43 H43       -10.5519    3.1197   53.8337 H       1  ZINC000446721380    0.0800
     44 H44        -9.3023    2.9739   52.5537 H       1  ZINC000446721380    0.0900
     45 H45       -11.6641    4.1619   51.9634 H       1  ZINC000446721380    0.1000
     46 H46       -10.9440    3.0132   50.7899 H       1  ZINC000446721380    0.0600
     47 H47       -11.8043    0.3615   51.3406 H       1  ZINC000446721380    0.0600
     48 H48       -12.5054    0.3855   52.9827 H       1  ZINC000446721380    0.0900
     49 H49        -9.5761    1.0545   56.9923 H       1  ZINC000446721380    0.1300
@<TRIPOS>BOND
     1     1     2    1
     2     1    28    1
     3     1    29    1
     4     1    30    1
     5     2    27   ar
     6     2     3   ar
     7     3     4   ar
     8     3    31    1
     9     4     5   ar
    10     4    32    1
    11     5     6    1
    12     5    18   ar
    13     6     7    1
    14     6    33    1
    15     6    34    1
    16     7     8   am
    17     7    35    1
    18     8     9    2
    19     8    10   am
    20    10    11    1
    21    10    36    1
    22    11    16   ar
    23    11    12   ar
    24    12    13   ar
    25    12    37    1
    26    13    14   ar
    27    13    38    1
    28    14    15   ar
    29    14    39    1
    30    15    16   ar
    31    15    40    1
    32    16    17    1
    33    18    19    1
    34    18    27   ar
    35    19    20    1
    36    20    21    1
    37    20    41    1
    38    20    42    1
    39    21    22    1
    40    21    26    1
    41    21    23    1
    42    23    24    1
    43    23    43    1
    44    23    44    1
    45    24    25    1
    46    24    45    1
    47    24    46    1
    48    25    26    1
    49    26    47    1
    50    26    48    1
    51    27    49    1
@<TRIPOS>SUBSTRUCTURE
     1 ZINC000446721380        1 TEMP              0 ****  ****    0 ROOT


##########                                Name:    ZINC000599228306
##########                DOCK_Rotatable_Bonds:                   8
##########                         Heavy_Atoms:                  25
##########                    Molecular_Weight:             379.382
##########                DOCK_Rotatable_Bonds:                   8
##########                       Formal_Charge:        -4.09782e-08
##########                     HBond_Acceptors:                  10
##########                        HBond_Donors:                   1
##########                         Heavy_Atoms:                  25
##########                          Grid_Score:          -27.709764
##########                     Grid_vdw_energy:          -26.491869
##########                      Grid_es_energy:           -1.217895
##########           Internal_energy_repulsive:           19.216125

@<TRIPOS>MOLECULE
ZINC000599228306
 44 44 1 0 0
SMALL
USER_CHARGES


@<TRIPOS>ATOM
      1 C1        -10.6551    0.7659   52.7266 C.3     1  ZINC000599228306    0.0400
      2 O2        -10.5563    2.1669   53.0949 O.3     1  ZINC000599228306   -0.3500
      3 C3         -9.3242    2.7120   53.1023 C.2     1  ZINC000599228306    0.5100
      4 O4         -8.8547    3.1383   54.1386 O.2     1  ZINC000599228306   -0.4800
      5 C5         -8.5449    2.7914   51.8516 C.ar    1  ZINC000599228306   -0.1500
      6 C6         -8.9201    3.6859   50.8466 C.ar    1  ZINC000599228306   -0.0100
      7 C7         -8.1863    3.7547   49.6789 C.ar    1  ZINC000599228306    0.0700
      8 F8         -8.5479    4.6195   48.7059 F       1  ZINC000599228306   -0.1200
      9 C9         -7.0792    2.9393   49.5025 C.ar    1  ZINC000599228306    0.0100
     10 C10        -6.7015    2.0514   50.4926 C.ar    1  ZINC000599228306   -0.7100
     11 S11        -5.2922    1.0203   50.2575 S.o2    1  ZINC000599228306    2.7000
     12 O12        -5.6782   -0.2855   50.6640 O.2     1  ZINC000599228306   -0.9200
     13 O13        -4.7916    1.3144   48.9605 O.2     1  ZINC000599228306   -0.9300
     14 N14        -4.1342    1.5209   51.3303 N.am    1  ZINC000599228306   -1.1000
     15 C15        -3.6260    2.8936   51.2720 C.3     1  ZINC000599228306    0.1600
     16 H16        -4.3928    3.5475   50.8564 H       1  ZINC000599228306    0.1300
     17 C17        -3.2643    3.3639   52.6822 C.3     1  ZINC000599228306   -0.1700
     18 C18        -2.3996    2.9385   50.3973 C.2     1  ZINC000599228306    0.4700
     19 O19        -2.4906    3.2979   49.2473 O.2     1  ZINC000599228306   -0.4900
     20 O20        -1.2063    2.5792   50.8957 O.3     1  ZINC000599228306   -0.3400
     21 C21        -0.1245    3.5400   50.7738 C.3     1  ZINC000599228306    0.1200
     22 C22         0.9082    3.2876   51.8741 C.3     1  ZINC000599228306   -0.1900
     23 C23         0.5413    3.3876   49.4048 C.3     1  ZINC000599228306   -0.1400
     24 C24        -0.6832    4.9575   50.9142 C.3     1  ZINC000599228306   -0.1800
     25 C25        -7.4235    1.9752   51.6692 C.ar    1  ZINC000599228306    0.2500
     26 F26        -7.0529    1.1073   52.6361 F       1  ZINC000599228306   -0.0900
     27 H27       -11.6989    0.4540   52.7609 H       1  ZINC000599228306    0.1100
     28 H28       -10.2674    0.6274   51.7173 H       1  ZINC000599228306    0.0700
     29 H29       -10.0730    0.1647   53.4250 H       1  ZINC000599228306    0.0700
     30 H30        -9.7823    4.3219   50.9824 H       1  ZINC000599228306    0.1700
     31 H31        -6.5091    2.9976   48.5872 H       1  ZINC000599228306    0.1800
     32 H32        -3.7924    0.9051   51.9973 H       1  ZINC000599228306    0.4300
     33 H33        -2.8862    4.3854   52.6387 H       1  ZINC000599228306    0.0900
     34 H34        -4.1514    3.3315   53.3147 H       1  ZINC000599228306    0.0700
     35 H35        -2.4975    2.7100   53.0977 H       1  ZINC000599228306    0.0800
     36 H36         1.3062    2.2778   51.7742 H       1  ZINC000599228306    0.0600
     37 H37         1.7202    4.0090   51.7827 H       1  ZINC000599228306    0.0700
     38 H38         0.4339    3.3963   52.8496 H       1  ZINC000599228306    0.0800
     39 H39        -0.1944    3.5674   48.6209 H       1  ZINC000599228306    0.0700
     40 H40         1.3534    4.1089   49.3133 H       1  ZINC000599228306    0.0800
     41 H41         0.9394    2.3777   49.3048 H       1  ZINC000599228306    0.0700
     42 H42        -1.1575    5.0661   51.8896 H       1  ZINC000599228306    0.0800
     43 H43         0.1289    5.6788   50.8227 H       1  ZINC000599228306    0.0700
     44 H44        -1.4189    5.1373   50.1304 H       1  ZINC000599228306    0.0600
@<TRIPOS>BOND
     1     1     2    1
     2     1    27    1
     3     1    28    1
     4     1    29    1
     5     2     3    1
     6     3     4    2
     7     3     5    1
     8     5    25   ar
     9     5     6   ar
    10     6     7   ar
    11     6    30    1
    12     7     8    1
    13     7     9   ar
    14     9    10   ar
    15     9    31    1
    16    10    11    1
    17    10    25   ar
    18    11    12    2
    19    11    13    2
    20    11    14   am
    21    14    15    1
    22    14    32    1
    23    15    16    1
    24    15    17    1
    25    15    18    1
    26    17    33    1
    27    17    34    1
    28    17    35    1
    29    18    19    2
    30    18    20    1
    31    20    21    1
    32    21    22    1
    33    21    23    1
    34    21    24    1
    35    22    36    1
    36    22    37    1
    37    22    38    1
    38    23    39    1
    39    23    40    1
    40    23    41    1
    41    24    42    1
    42    24    43    1
    43    24    44    1
    44    25    26    1
@<TRIPOS>SUBSTRUCTURE
     1 ZINC000599228306        1 TEMP              0 ****  ****    0 ROOT


##########                                Name:    ZINC001345966764
##########                DOCK_Rotatable_Bonds:                  10
##########                         Heavy_Atoms:                  22
##########                    Molecular_Weight:             333.258
##########                DOCK_Rotatable_Bonds:                  10
##########                       Formal_Charge:           0.0099997
##########                     HBond_Acceptors:                  11
##########                        HBond_Donors:                   4
##########                         Heavy_Atoms:                  22
##########                          Grid_Score:          -27.685732
##########                     Grid_vdw_energy:          -25.496349
##########                      Grid_es_energy:           -2.189383
##########           Internal_energy_repulsive:            4.997155

@<TRIPOS>MOLECULE
ZINC001345966764
 38 38 1 0 0
SMALL
USER_CHARGES


@<TRIPOS>ATOM
      1 N1         -4.5789    4.9658   56.3432 N.3     1  ZINC001345966764   -0.8400
      2 C2         -3.8572    4.0727   55.4269 C.3     1  ZINC001345966764    0.0200
      3 C3         -2.5438    4.7319   55.0012 C.3     1  ZINC001345966764    0.2800
      4 F4         -2.8198    5.8669   54.2311 F       1  ZINC001345966764   -0.1900
      5 F5         -1.8191    5.1049   56.1384 F       1  ZINC001345966764   -0.1800
      6 C6         -1.7210    3.7421   54.1741 C.3     1  ZINC001345966764    0.0800
      7 N7         -2.4736    3.3633   52.9756 N.am    1  ZINC001345966764   -0.7000
      8 C8         -1.8202    3.0782   51.8317 C.2     1  ZINC001345966764    0.5100
      9 O9         -0.6086    3.1340   51.7949 O.2     1  ZINC001345966764   -0.5100
     10 C10        -2.5880    2.6935   50.6085 C.2     1  ZINC001345966764    0.5100
     11 O11        -2.0884    2.8289   49.5110 O.2     1  ZINC001345966764   -0.5100
     12 N12        -3.8352    2.1962   50.7246 N.am    1  ZINC001345966764   -0.7000
     13 C13        -4.5886    1.8207   49.5255 C.3     1  ZINC001345966764    0.1200
     14 C14        -6.0344    1.5012   49.9107 C.3     1  ZINC001345966764    0.0600
     15 H15        -6.7117    1.7781   49.1028 H       1  ZINC001345966764    0.0900
     16 C16        -6.1825    0.0006   50.2460 C.3     1  ZINC001345966764   -0.1400
     17 C17        -7.1870   -0.0245   51.4198 C.3     1  ZINC001345966764   -0.1500
     18 C18        -7.5269    1.4640   51.6547 C.3     1  ZINC001345966764    0.0300
     19 H19        -8.4344    1.7356   51.1157 H       1  ZINC001345966764    0.1200
     20 C20        -7.6932    1.7428   53.1499 C.3     1  ZINC001345966764    0.4600
     21 F21        -6.4335    1.8985   53.7382 F       1  ZINC001345966764   -0.1700
     22 F22        -8.4381    2.9138   53.3259 F       1  ZINC001345966764   -0.1700
     23 F23        -8.3601    0.6709   53.7528 F       1  ZINC001345966764   -0.1700
     24 O24        -6.3947    2.1910   51.1274 O.3     1  ZINC001345966764   -0.3500
     25 H25        -5.4756    4.5778   56.5949 H       1  ZINC001345966764    0.3500
     26 H26        -4.0272    5.1639   57.1644 H       1  ZINC001345966764    0.3600
     27 H27        -3.6439    3.1302   55.9312 H       1  ZINC001345966764    0.1100
     28 H28        -4.4706    3.8829   54.5461 H       1  ZINC001345966764    0.0700
     29 H29        -0.7804    4.2079   53.8803 H       1  ZINC001345966764    0.1100
     30 H30        -1.5156    2.8531   54.7703 H       1  ZINC001345966764    0.1100
     31 H31        -3.4420    3.3176   53.0052 H       1  ZINC001345966764    0.4200
     32 H32        -4.2341    2.0868   51.6019 H       1  ZINC001345966764    0.4200
     33 H33        -4.5761    2.6473   48.8149 H       1  ZINC001345966764    0.1000
     34 H34        -4.1315    0.9426   49.0693 H       1  ZINC001345966764    0.0900
     35 H35        -6.5812   -0.5445   49.3904 H       1  ZINC001345966764    0.0900
     36 H36        -5.2245   -0.4183   50.5542 H       1  ZINC001345966764    0.0900
     37 H37        -8.0822   -0.5820   51.1445 H       1  ZINC001345966764    0.1000
     38 H38        -6.7255   -0.4557   52.3082 H       1  ZINC001345966764    0.0900
@<TRIPOS>BOND
     1     1     2    1
     2     1    25    1
     3     1    26    1
     4     2     3    1
     5     2    27    1
     6     2    28    1
     7     3     4    1
     8     3     5    1
     9     3     6    1
    10     6     7    1
    11     6    29    1
    12     6    30    1
    13     7     8   am
    14     7    31    1
    15     8     9    2
    16     8    10    1
    17    10    11    2
    18    10    12   am
    19    12    13    1
    20    12    32    1
    21    13    14    1
    22    13    33    1
    23    13    34    1
    24    14    15    1
    25    14    24    1
    26    14    16    1
    27    16    17    1
    28    16    35    1
    29    16    36    1
    30    17    18    1
    31    17    37    1
    32    17    38    1
    33    18    19    1
    34    18    20    1
    35    18    24    1
    36    20    21    1
    37    20    22    1
    38    20    23    1
@<TRIPOS>SUBSTRUCTURE
     1 ZINC001345966764        1 TEMP              0 ****  ****    0 ROOT


##########                                Name:    ZINC001013196242
##########                DOCK_Rotatable_Bonds:                   5
##########                         Heavy_Atoms:                  24
##########                    Molecular_Weight:              349.86
##########                DOCK_Rotatable_Bonds:                   5
##########                       Formal_Charge:        -3.05474e-07
##########                     HBond_Acceptors:                   6
##########                        HBond_Donors:                   1
##########                         Heavy_Atoms:                  24
##########                          Grid_Score:          -27.678917
##########                     Grid_vdw_energy:          -27.617985
##########                      Grid_es_energy:           -0.060932
##########           Internal_energy_repulsive:           18.185356

@<TRIPOS>MOLECULE
ZINC001013196242
 48 51 1 0 0
SMALL
USER_CHARGES


@<TRIPOS>ATOM
      1 C1        -11.0051    1.0553   60.3898 C.3     1  ZINC001013196242   -0.1600
      2 C2        -10.3485   -0.0065   61.2743 C.3     1  ZINC001013196242    0.1400
      3 H3        -10.8909   -0.9480   61.1877 H       1  ZINC001013196242    0.0800
      4 C4        -10.3450    0.4638   62.7442 C.3     1  ZINC001013196242   -0.1400
      5 C5         -8.9683   -0.0288   63.2633 C.3     1  ZINC001013196242    0.1300
      6 H6         -9.0138   -1.0777   63.5562 H       1  ZINC001013196242    0.1100
      7 N7         -8.4971    0.8035   64.3730 N.am    1  ZINC001013196242   -0.7200
      8 C8         -9.0273    0.6504   65.6026 C.2     1  ZINC001013196242    0.5400
      9 O9         -9.8933   -0.1776   65.7907 O.2     1  ZINC001013196242   -0.5200
     10 C10        -8.5439    1.5078   66.7437 C.3     1  ZINC001013196242   -0.1400
     11 C11        -7.0923    1.2147   67.1622 C.3     1  ZINC001013196242   -0.0800
     12 C12        -6.6711    2.2701   66.1339 C.3     1  ZINC001013196242   -0.1600
     13 C13        -5.3227    2.9653   65.9828 C.3     1  ZINC001013196242   -0.1700
     14 C14        -5.8629    2.0820   64.8549 C.3     1  ZINC001013196242   -0.1400
     15 C15        -8.0576    2.9002   66.3046 C.3     1  ZINC001013196242   -0.0800
     16 C16        -8.0777    0.1595   62.0098 C.3     1  ZINC001013196242    0.0800
     17 N17        -8.9479   -0.1974   60.8703 N.am    1  ZINC001013196242   -0.6000
     18 C18        -8.5261   -0.6241   59.6635 C.2     1  ZINC001013196242    0.6100
     19 O19        -7.3354   -0.7447   59.4427 O.2     1  ZINC001013196242   -0.5400
     20 C20        -9.5021   -0.9432   58.6163 C.2     1  ZINC001013196242   -0.0400
     21 C21       -10.5157   -1.8741   58.7033 C.2     1  ZINC001013196242   -0.1400
     22 C22       -11.2015   -1.8505   57.4843 C.2     1  ZINC001013196242   -0.1200
     23 Cl23      -12.5705   -2.8312   57.0625 Cl      1  ZINC001013196242   -0.0400
     24 C24       -10.6077   -0.9259   56.6913 C.2     1  ZINC001013196242    0.0400
     25 N25        -9.5766   -0.3639   57.3699 N.pl3   1  ZINC001013196242   -0.4000
     26 C26        -8.6852    0.6803   56.8585 C.3     1  ZINC001013196242    0.0700
     27 H27       -10.9990    0.7190   59.3530 H       1  ZINC001013196242    0.0700
     28 H28       -12.0336    1.2134   60.7145 H       1  ZINC001013196242    0.0700
     29 H29       -10.4505    1.9901   60.4718 H       1  ZINC001013196242    0.0600
     30 H30       -10.4126    1.5502   62.8016 H       1  ZINC001013196242    0.0900
     31 H31       -11.1570   -0.0041   63.3007 H       1  ZINC001013196242    0.0900
     32 H32        -7.8036    1.4649   64.2228 H       1  ZINC001013196242    0.4000
     33 H33        -9.2434    1.5336   67.5793 H       1  ZINC001013196242    0.1000
     34 H34        -6.8693    1.4941   68.1920 H       1  ZINC001013196242    0.1000
     35 H35        -6.7611    0.2063   66.9145 H       1  ZINC001013196242    0.0700
     36 H36        -5.3271    4.0437   65.8240 H       1  ZINC001013196242    0.1000
     37 H37        -4.4887    2.5795   66.5691 H       1  ZINC001013196242    0.0900
     38 H38        -5.3843    1.1152   64.6993 H       1  ZINC001013196242    0.0900
     39 H39        -6.2229    2.5794   63.9542 H       1  ZINC001013196242    0.1000
     40 H40        -8.5001    3.2431   65.3693 H       1  ZINC001013196242    0.0800
     41 H41        -8.1033    3.6488   67.0956 H       1  ZINC001013196242    0.0900
     42 H42        -7.7509    1.1961   61.9290 H       1  ZINC001013196242    0.0800
     43 H43        -7.2173   -0.5084   62.0521 H       1  ZINC001013196242    0.1000
     44 H44       -10.7379   -2.5032   59.5526 H       1  ZINC001013196242    0.1600
     45 H45       -10.9086   -0.6748   55.6850 H       1  ZINC001013196242    0.1800
     46 H46        -9.0450    1.6564   57.1838 H       1  ZINC001013196242    0.0800
     47 H47        -7.6780    0.5180   57.2420 H       1  ZINC001013196242    0.1000
     48 H48        -8.6697    0.6433   55.7693 H       1  ZINC001013196242    0.0900
@<TRIPOS>BOND
     1     1     2    1
     2     1    27    1
     3     1    28    1
     4     1    29    1
     5     2     3    1
     6     2    17    1
     7     2     4    1
     8     4     5    1
     9     4    30    1
    10     4    31    1
    11     5     6    1
    12     5     7    1
    13     5    16    1
    14     7     8   am
    15     7    32    1
    16     8     9    2
    17     8    10    1
    18    10    15    1
    19    10    11    1
    20    10    33    1
    21    11    12    1
    22    11    34    1
    23    11    35    1
    24    12    14    1
    25    12    13    1
    26    12    15    1
    27    13    14    1
    28    13    36    1
    29    13    37    1
    30    14    38    1
    31    14    39    1
    32    15    40    1
    33    15    41    1
    34    16    17    1
    35    16    42    1
    36    16    43    1
    37    17    18   am
    38    18    19    2
    39    18    20    1
    40    20    25    1
    41    20    21    2
    42    21    22    1
    43    21    44    1
    44    22    23    1
    45    22    24    2
    46    24    25    1
    47    24    45    1
    48    25    26    1
    49    26    46    1
    50    26    47    1
    51    26    48    1
@<TRIPOS>SUBSTRUCTURE
     1 ZINC001013196242        1 TEMP              0 ****  ****    0 ROOT


##########                                Name:    ZINC000950547210
##########                DOCK_Rotatable_Bonds:                   5
##########                         Heavy_Atoms:                  25
##########                    Molecular_Weight:              346.47
##########                DOCK_Rotatable_Bonds:                   5
##########                       Formal_Charge:         5.58794e-07
##########                     HBond_Acceptors:                   5
##########                        HBond_Donors:                   1
##########                         Heavy_Atoms:                  25
##########                          Grid_Score:          -27.656351
##########                     Grid_vdw_energy:          -26.777597
##########                      Grid_es_energy:           -0.878754
##########           Internal_energy_repulsive:           18.097122

@<TRIPOS>MOLECULE
ZINC000950547210
 55 58 1 0 0
SMALL
USER_CHARGES


@<TRIPOS>ATOM
      1 O1         -2.5652    3.0273   49.4690 O.2     1  ZINC000950547210   -0.5200
      2 C2         -2.6714    2.8437   50.6631 C.2     1  ZINC000950547210    0.5200
      3 N3         -1.6871    3.2367   51.4956 N.am    1  ZINC000950547210   -0.7300
      4 C4         -0.4861    3.8804   50.9575 C.3     1  ZINC000950547210    0.1300
      5 H5         -0.5622    3.9427   49.8719 H       1  ZINC000950547210    0.0900
      6 C6         -0.3558    5.2887   51.5422 C.3     1  ZINC000950547210   -0.1300
      7 C7          0.8805    5.9740   50.9556 C.3     1  ZINC000950547210   -0.1300
      8 C8          2.1310    5.1750   51.3358 C.3     1  ZINC000950547210    0.1000
      9 N9          1.9515    3.7821   50.9043 N.am    1  ZINC000950547210   -0.6100
     10 C10         2.8727    3.1802   50.1262 C.2     1  ZINC000950547210    0.5600
     11 O11         3.8641    3.7905   49.7746 O.2     1  ZINC000950547210   -0.5200
     12 C12         2.6790    1.7850   49.7022 C.2     1  ZINC000950547210   -0.1400
     13 C13         3.1322    0.8146   50.4753 C.2     1  ZINC000950547210   -0.1500
     14 C14         2.9875   -0.6381   50.1191 C.3     1  ZINC000950547210    0.0900
     15 O15         2.0163   -0.7950   49.0828 O.3     1  ZINC000950547210   -0.3700
     16 C16         2.2431    0.0708   47.9640 C.3     1  ZINC000950547210    0.0600
     17 C17         1.9662    1.5120   48.4061 C.3     1  ZINC000950547210   -0.1100
     18 C18         0.7489    3.0573   51.3370 C.3     1  ZINC000950547210    0.1000
     19 C19        -3.9069    2.1816   51.2166 C.3     1  ZINC000950547210   -0.1000
     20 H20        -3.6705    1.7115   52.1712 H       1  ZINC000950547210    0.1000
     21 C21        -4.4000    1.1186   50.2329 C.3     1  ZINC000950547210   -0.1100
     22 C22        -5.8218    1.4605   49.7828 C.3     1  ZINC000950547210   -0.0900
     23 C23        -6.7473    1.4970   51.0005 C.3     1  ZINC000950547210   -0.1100
     24 C24        -6.2542    2.5600   51.9842 C.3     1  ZINC000950547210   -0.1100
     25 C25        -4.9999    3.2323   51.4223 C.3     1  ZINC000950547210   -0.0600
     26 C26        -5.3317    3.8921   50.0823 C.3     1  ZINC000950547210   -0.1300
     27 C27        -5.8248    2.8290   49.0986 C.3     1  ZINC000950547210   -0.1200
     28 H28        -1.7739    3.0934   52.4510 H       1  ZINC000950547210    0.4000
     29 H29        -1.2447    5.8687   51.2938 H       1  ZINC000950547210    0.0800
     30 H30        -0.2555    5.2242   52.6256 H       1  ZINC000950547210    0.0700
     31 H31         0.7921    6.0166   49.8700 H       1  ZINC000950547210    0.0700
     32 H32         0.9596    6.9853   51.3546 H       1  ZINC000950547210    0.0900
     33 H33         3.0023    5.6020   50.8394 H       1  ZINC000950547210    0.0900
     34 H34         2.2710    5.2078   52.4164 H       1  ZINC000950547210    0.0700
     35 H35         3.6267    1.0754   51.3994 H       1  ZINC000950547210    0.1200
     36 H36         3.9476   -1.0236   49.7761 H       1  ZINC000950547210    0.0700
     37 H37         2.6698   -1.1962   50.9998 H       1  ZINC000950547210    0.1100
     38 H38         3.2773   -0.0223   47.6326 H       1  ZINC000950547210    0.0600
     39 H39         1.5690   -0.1977   47.1506 H       1  ZINC000950547210    0.1000
     40 H40         0.8932    1.6512   48.5386 H       1  ZINC000950547210    0.0900
     41 H41         2.3301    2.2015   47.6445 H       1  ZINC000950547210    0.0900
     42 H42         0.7756    2.9171   52.4176 H       1  ZINC000950547210    0.0700
     43 H43         0.7089    2.0872   50.8416 H       1  ZINC000950547210    0.1000
     44 H44        -3.7406    1.0925   49.3654 H       1  ZINC000950547210    0.0700
     45 H45        -4.3978    0.1436   50.7203 H       1  ZINC000950547210    0.0700
     46 H46        -6.1730    0.7032   49.0820 H       1  ZINC000950547210    0.0700
     47 H47        -7.7602    1.7406   50.6799 H       1  ZINC000950547210    0.0600
     48 H48        -6.7451    0.5220   51.4879 H       1  ZINC000950547210    0.0600
     49 H49        -7.0329    3.3086   52.1307 H       1  ZINC000950547210    0.0700
     50 H50        -6.0179    2.0900   52.9388 H       1  ZINC000950547210    0.0600
     51 H51        -4.6487    3.9896   52.1231 H       1  ZINC000950547210    0.0800
     52 H52        -6.1105    4.6406   50.2288 H       1  ZINC000950547210    0.0600
     53 H53        -4.4382    4.3710   49.6820 H       1  ZINC000950547210    0.0900
     54 H54        -5.1654    2.8030   48.2311 H       1  ZINC000950547210    0.0600
     55 H55        -6.8377    3.0726   48.7780 H       1  ZINC000950547210    0.0600
@<TRIPOS>BOND
     1     1     2    2
     2     2     3   am
     3     2    19    1
     4     3     4    1
     5     3    28    1
     6     4     5    1
     7     4    18    1
     8     4     6    1
     9     6     7    1
    10     6    29    1
    11     6    30    1
    12     7     8    1
    13     7    31    1
    14     7    32    1
    15     8     9    1
    16     8    33    1
    17     8    34    1
    18     9    10   am
    19     9    18    1
    20    10    11    2
    21    10    12    1
    22    12    17    1
    23    12    13    2
    24    13    14    1
    25    13    35    1
    26    14    15    1
    27    14    36    1
    28    14    37    1
    29    15    16    1
    30    16    17    1
    31    16    38    1
    32    16    39    1
    33    17    40    1
    34    17    41    1
    35    18    42    1
    36    18    43    1
    37    19    20    1
    38    19    25    1
    39    19    21    1
    40    21    22    1
    41    21    44    1
    42    21    45    1
    43    22    27    1
    44    22    23    1
    45    22    46    1
    46    23    24    1
    47    23    47    1
    48    23    48    1
    49    24    25    1
    50    24    49    1
    51    24    50    1
    52    25    26    1
    53    25    51    1
    54    26    27    1
    55    26    52    1
    56    26    53    1
    57    27    54    1
    58    27    55    1
@<TRIPOS>SUBSTRUCTURE
     1 ZINC000950547210        1 TEMP              0 ****  ****    0 ROOT


##########                                Name:    ZINC000001174632
##########                DOCK_Rotatable_Bonds:                   6
##########                         Heavy_Atoms:                  29
##########                    Molecular_Weight:             385.419
##########                DOCK_Rotatable_Bonds:                   6
##########                       Formal_Charge:           0.0400005
##########                     HBond_Acceptors:                   5
##########                        HBond_Donors:                   1
##########                         Heavy_Atoms:                  29
##########                          Grid_Score:          -27.648226
##########                     Grid_vdw_energy:          -27.941940
##########                      Grid_es_energy:            0.293714
##########           Internal_energy_repulsive:           14.813010

@<TRIPOS>MOLECULE
ZINC000001174632
 48 51 1 0 0
SMALL
USER_CHARGES


@<TRIPOS>ATOM
      1 C1         -7.5957    6.2081   49.0798 C.3     1  ZINC000001174632    0.0400
      2 O2         -7.0422    5.0240   49.7118 O.3     1  ZINC000001174632   -0.3500
      3 C3         -7.8153    3.9202   49.7265 C.2     1  ZINC000001174632    0.5200
      4 O4         -8.9590    3.9741   49.3196 O.2     1  ZINC000001174632   -0.5200
      5 C5         -7.2736    2.6480   50.2360 C.ar    1  ZINC000001174632   -0.2000
      6 C6         -8.0644    1.8156   51.0315 C.ar    1  ZINC000001174632   -0.0200
      7 C7         -7.5518    0.6267   51.5044 C.ar    1  ZINC000001174632   -0.1800
      8 C8         -6.2544    0.2511   51.1952 C.ar    1  ZINC000001174632   -0.0300
      9 C9         -5.4599    1.0625   50.4107 C.ar    1  ZINC000001174632   -0.1900
     10 C10        -5.9605    2.2619   49.9197 C.ar    1  ZINC000001174632    0.2600
     11 N11        -5.1633    3.0799   49.1299 N.pl3   1  ZINC000001174632   -0.6500
     12 C12        -3.8545    3.3005   49.4739 C.2     1  ZINC000001174632    0.2300
     13 C13        -3.4261    4.0082   50.5806 C.2     1  ZINC000001174632   -0.1800
     14 C14        -4.2981    4.6517   51.5883 C.ar    1  ZINC000001174632   -0.0600
     15 C15        -4.8309    3.8987   52.6356 C.ar    1  ZINC000001174632   -0.0600
     16 C16        -5.6431    4.5023   53.5727 C.ar    1  ZINC000001174632   -0.1500
     17 C17        -5.9313    5.8566   53.4749 C.ar    1  ZINC000001174632    0.1400
     18 O18        -6.7324    6.4478   54.4007 O.3     1  ZINC000001174632   -0.3200
     19 C19        -6.9662    7.8501   54.2556 C.3     1  ZINC000001174632    0.0300
     20 C20        -5.4033    6.6091   52.4348 C.ar    1  ZINC000001174632   -0.2100
     21 C21        -4.5852    6.0145   51.4971 C.ar    1  ZINC000001174632   -0.0500
     22 C22        -1.9578    4.0119   50.5863 C.2     1  ZINC000001174632    0.4500
     23 O23        -1.2392    4.5397   51.4124 O.2     1  ZINC000001174632   -0.4100
     24 C24        -1.5159    3.2460   49.3883 C.ar    1  ZINC000001174632   -0.1600
     25 C25        -0.2683    2.9260   48.8869 C.ar    1  ZINC000001174632   -0.0500
     26 C26        -0.1615    2.1790   47.7179 C.ar    1  ZINC000001174632   -0.1100
     27 C27        -1.2953    1.7575   47.0579 C.ar    1  ZINC000001174632   -0.0900
     28 C28        -2.5551    2.0734   47.5528 C.ar    1  ZINC000001174632   -0.0800
     29 C29        -2.6749    2.8121   48.7208 C.ar    1  ZINC000001174632   -0.0600
     30 H30        -8.5121    6.4993   49.5932 H       1  ZINC000001174632    0.0700
     31 H31        -6.8730    7.0221   49.1370 H       1  ZINC000001174632    0.1100
     32 H32        -7.8177    5.9921   48.0347 H       1  ZINC000001174632    0.0700
     33 H33        -9.0762    2.1034   51.2761 H       1  ZINC000001174632    0.1400
     34 H34        -8.1647   -0.0154   52.1197 H       1  ZINC000001174632    0.1300
     35 H35        -5.8622   -0.6824   51.5707 H       1  ZINC000001174632    0.1300
     36 H36        -4.4495    0.7629   50.1749 H       1  ZINC000001174632    0.1300
     37 H37        -5.5324    3.4952   48.3348 H       1  ZINC000001174632    0.4300
     38 H38        -4.6076    2.8448   52.7120 H       1  ZINC000001174632    0.1300
     39 H39        -6.0558    3.9203   54.3834 H       1  ZINC000001174632    0.1300
     40 H40        -6.0172    8.3838   54.3058 H       1  ZINC000001174632    0.0600
     41 H41        -7.4403    8.0416   53.2928 H       1  ZINC000001174632    0.0600
     42 H42        -7.6196    8.1943   55.0572 H       1  ZINC000001174632    0.1000
     43 H43        -5.6302    7.6625   52.3620 H       1  ZINC000001174632    0.1300
     44 H44        -4.1745    6.6006   50.6883 H       1  ZINC000001174632    0.1300
     45 H45         0.6223    3.2554   49.4015 H       1  ZINC000001174632    0.1400
     46 H46         0.8134    1.9290   47.3261 H       1  ZINC000001174632    0.1400
     47 H47        -1.2046    1.1787   46.1506 H       1  ZINC000001174632    0.1400
     48 H48        -3.4400    1.7402   47.0311 H       1  ZINC000001174632    0.1300
@<TRIPOS>BOND
     1     1     2    1
     2     1    30    1
     3     1    31    1
     4     1    32    1
     5     2     3    1
     6     3     4    2
     7     3     5    1
     8     5    10   ar
     9     5     6   ar
    10     6     7   ar
    11     6    33    1
    12     7     8   ar
    13     7    34    1
    14     8     9   ar
    15     8    35    1
    16     9    10   ar
    17     9    36    1
    18    10    11    1
    19    11    12    1
    20    11    37    1
    21    12    29    1
    22    12    13    2
    23    13    14    1
    24    13    22    1
    25    14    21   ar
    26    14    15   ar
    27    15    16   ar
    28    15    38    1
    29    16    17   ar
    30    16    39    1
    31    17    18    1
    32    17    20   ar
    33    18    19    1
    34    19    40    1
    35    19    41    1
    36    19    42    1
    37    20    21   ar
    38    20    43    1
    39    21    44    1
    40    22    23    2
    41    22    24    1
    42    24    29   ar
    43    24    25   ar
    44    25    26   ar
    45    25    45    1
    46    26    27   ar
    47    26    46    1
    48    27    28   ar
    49    27    47    1
    50    28    29   ar
    51    28    48    1
@<TRIPOS>SUBSTRUCTURE
     1 ZINC000001174632        1 TEMP              0 ****  ****    0 ROOT


##########                                Name:    ZINC000794876634
##########                DOCK_Rotatable_Bonds:                   4
##########                         Heavy_Atoms:                  24
##########                    Molecular_Weight:             389.249
##########                DOCK_Rotatable_Bonds:                   4
##########                       Formal_Charge:        -4.47035e-08
##########                     HBond_Acceptors:                   5
##########                        HBond_Donors:                   0
##########                         Heavy_Atoms:                  24
##########                          Grid_Score:          -27.638817
##########                     Grid_vdw_energy:          -26.775770
##########                      Grid_es_energy:           -0.863047
##########           Internal_energy_repulsive:           16.287783

@<TRIPOS>MOLECULE
ZINC000794876634
 41 43 1 0 0
SMALL
USER_CHARGES


@<TRIPOS>ATOM
      1 C1         -9.2127    4.0928   50.2024 C.3     1  ZINC000794876634    0.0200
      2 O2         -8.6439    3.1274   51.0893 O.3     1  ZINC000794876634   -0.3000
      3 C3         -7.2916    3.1253   51.2131 C.ar    1  ZINC000794876634    0.1300
      4 C4         -6.5765    4.2987   51.0115 C.ar    1  ZINC000794876634   -0.1800
      5 C5         -5.2048    4.3035   51.1350 C.ar    1  ZINC000794876634   -0.0400
      6 C6         -4.4327    5.5789   50.9155 C.3     1  ZINC000794876634   -0.1200
      7 C7         -4.5278    3.1221   51.4652 C.ar    1  ZINC000794876634   -0.1000
      8 C8         -3.0681    3.1236   51.5979 C.2     1  ZINC000794876634    0.0600
      9 C9         -2.2849    2.8178   50.5226 C.2     1  ZINC000794876634   -0.1700
     10 C10        -2.7256    2.4642   49.1623 C.2     1  ZINC000794876634    0.5700
     11 O11        -3.8791    2.3893   48.7802 O.2     1  ZINC000794876634   -0.4900
     12 N12        -1.6302    2.2394   48.4175 N.am    1  ZINC000794876634   -0.5300
     13 C13        -1.6596    1.8622   47.0021 C.3     1  ZINC000794876634    0.0800
     14 C14        -0.4686    2.4095   49.1547 C.ar    1  ZINC000794876634    0.3700
     15 N15         0.8101    2.2901   48.8197 N.ar    1  ZINC000794876634   -0.4900
     16 C16         1.7798    2.4994   49.6869 C.ar    1  ZINC000794876634    0.1800
     17 C17         1.5144    2.8561   50.9971 C.ar    1  ZINC000794876634   -0.1800
     18 Br18        2.9301    3.1496   52.2158 Br      1  ZINC000794876634   -0.0200
     19 C19         0.1956    2.9959   51.4047 C.ar    1  ZINC000794876634    0.0000
     20 C20        -0.8071    2.7750   50.4663 C.ar    1  ZINC000794876634   -0.1400
     21 C21        -5.2513    1.9385   51.6687 C.ar    1  ZINC000794876634   -0.1400
     22 C22        -6.6258    1.9456   51.5477 C.ar    1  ZINC000794876634    0.0900
     23 O23        -7.3311    0.7996   51.7448 O.3     1  ZINC000794876634   -0.3000
     24 C24        -6.5940   -0.3532   52.1567 C.3     1  ZINC000794876634    0.0200
     25 H25       -10.2974    3.9863   50.1969 H       1  ZINC000794876634    0.1000
     26 H26        -8.9477    5.0953   50.5384 H       1  ZINC000794876634    0.0600
     27 H27        -8.8267    3.9331   49.1956 H       1  ZINC000794876634    0.0600
     28 H28        -7.0975    5.2098   50.7570 H       1  ZINC000794876634    0.1400
     29 H29        -4.3371    6.1130   51.8609 H       1  ZINC000794876634    0.0800
     30 H30        -3.4410    5.3415   50.5304 H       1  ZINC000794876634    0.0700
     31 H31        -4.9614    6.2046   50.1965 H       1  ZINC000794876634    0.0700
     32 H32        -2.6123    3.3666   52.5462 H       1  ZINC000794876634    0.1500
     33 H33        -2.6941    1.7964   46.6652 H       1  ZINC000794876634    0.0900
     34 H34        -1.1333    2.6146   46.4146 H       1  ZINC000794876634    0.0800
     35 H35        -1.1733    0.8953   46.8736 H       1  ZINC000794876634    0.0800
     36 H36         2.8058    2.3896   49.3677 H       1  ZINC000794876634    0.1800
     37 H37        -0.0455    3.2728   52.4204 H       1  ZINC000794876634    0.1600
     38 H38        -4.7347    1.0249   51.9233 H       1  ZINC000794876634    0.1400
     39 H39        -5.9044   -0.6455   51.3648 H       1  ZINC000794876634    0.0500
     40 H40        -6.0316   -0.1209   53.0610 H       1  ZINC000794876634    0.0600
     41 H41        -7.2839   -1.1726   52.3585 H       1  ZINC000794876634    0.1100
@<TRIPOS>BOND
     1     1     2    1
     2     1    25    1
     3     1    26    1
     4     1    27    1
     5     2     3    1
     6     3    22   ar
     7     3     4   ar
     8     4     5   ar
     9     4    28    1
    10     5     6    1
    11     5     7   ar
    12     6    29    1
    13     6    30    1
    14     6    31    1
    15     7     8    1
    16     7    21   ar
    17     8     9    2
    18     8    32    1
    19     9    20    1
    20     9    10    1
    21    10    11    2
    22    10    12   am
    23    12    13    1
    24    12    14    1
    25    13    33    1
    26    13    34    1
    27    13    35    1
    28    14    20   ar
    29    14    15   ar
    30    15    16   ar
    31    16    17   ar
    32    16    36    1
    33    17    18    1
    34    17    19   ar
    35    19    20   ar
    36    19    37    1
    37    21    22   ar
    38    21    38    1
    39    22    23    1
    40    23    24    1
    41    24    39    1
    42    24    40    1
    43    24    41    1
@<TRIPOS>SUBSTRUCTURE
     1 ZINC000794876634        1 TEMP              0 ****  ****    0 ROOT


##########                                Name:    ZINC001091652821
##########                DOCK_Rotatable_Bonds:                   4
##########                         Heavy_Atoms:                  24
##########                    Molecular_Weight:             345.465
##########                DOCK_Rotatable_Bonds:                   4
##########                       Formal_Charge:          -0.0199997
##########                     HBond_Acceptors:                   6
##########                        HBond_Donors:                   0
##########                         Heavy_Atoms:                  24
##########                          Grid_Score:          -27.606962
##########                     Grid_vdw_energy:          -26.890970
##########                      Grid_es_energy:           -0.715993
##########           Internal_energy_repulsive:            7.140417

@<TRIPOS>MOLECULE
ZINC001091652821
 47 50 1 0 0
SMALL
USER_CHARGES


@<TRIPOS>ATOM
      1 C1          1.4915    1.2238   51.0889 C.3     1  ZINC001091652821   -0.1000
      2 C2          0.3762    1.9511   50.3831 C.2     1  ZINC001091652821   -0.1200
      3 C3          0.2608    1.9684   49.0501 C.2     1  ZINC001091652821   -0.2400
      4 S4         -1.1018    2.8746   48.5672 S.3     1  ZINC001091652821    0.2100
      5 C5         -1.5154    3.2333   50.2381 C.2     1  ZINC001091652821   -0.2700
      6 C6         -2.6617    4.0346   50.6773 C.2     1  ZINC001091652821    0.6100
      7 O7         -2.5059    4.9227   51.4946 O.2     1  ZINC001091652821   -0.5200
      8 N8         -3.8881    3.7876   50.1758 N.am    1  ZINC001091652821   -0.6200
      9 C9         -4.2442    2.7525   49.1916 C.3     1  ZINC001091652821    0.0900
     10 C10        -5.6849    2.3235   49.5146 C.3     1  ZINC001091652821   -0.0900
     11 H11        -6.2714    2.1482   48.6127 H       1  ZINC001091652821    0.1100
     12 C12        -5.6482    1.0833   50.4319 C.3     1  ZINC001091652821    0.0400
     13 N13        -6.6746    1.3529   51.4711 N.3     1  ZINC001091652821   -0.5000
     14 C14        -6.4375    0.5370   52.6694 C.3     1  ZINC001091652821    0.1200
     15 C15        -7.3327    1.0111   53.7851 C.2     1  ZINC001091652821    0.0000
     16 C16        -7.0377    1.9594   54.6897 C.2     1  ZINC001091652821   -0.0800
     17 O17        -8.1049    2.0766   55.5038 O.3     1  ZINC001091652821   -0.2000
     18 C18        -9.0329    1.2039   55.0891 C.2     1  ZINC001091652821    0.1900
     19 C19       -10.3881    0.9998   55.7158 C.3     1  ZINC001091652821   -0.0600
     20 N20        -8.5732    0.5652   54.0512 N.2     1  ZINC001091652821   -0.4700
     21 C21        -6.5175    2.7989   51.7721 C.3     1  ZINC001091652821    0.0400
     22 C22        -6.2690    3.4714   50.3780 C.3     1  ZINC001091652821   -0.0700
     23 C23        -7.5479    4.0770   49.7963 C.3     1  ZINC001091652821   -0.1300
     24 C24        -5.1343    4.4961   50.5103 C.3     1  ZINC001091652821    0.1200
     25 C25        -0.6003    2.6406   51.0620 C.2     1  ZINC001091652821   -0.0500
     26 H26         1.1841    0.1982   51.2935 H       1  ZINC001091652821    0.0700
     27 H27         2.3789    1.2176   50.4559 H       1  ZINC001091652821    0.0700
     28 H28         1.7182    1.7293   52.0275 H       1  ZINC001091652821    0.0700
     29 H29         0.9398    1.4749   48.3705 H       1  ZINC001091652821    0.1700
     30 H30        -4.1931    3.1623   48.1828 H       1  ZINC001091652821    0.0800
     31 H31        -3.5705    1.9007   49.2844 H       1  ZINC001091652821    0.0800
     32 H32        -5.9049    0.1863   49.8684 H       1  ZINC001091652821    0.0800
     33 H33        -4.6642    0.9775   50.8885 H       1  ZINC001091652821    0.0500
     34 H34        -6.6563   -0.5074   52.4470 H       1  ZINC001091652821    0.0500
     35 H35        -5.3953    0.6330   52.9740 H       1  ZINC001091652821    0.1000
     36 H36        -6.1178    2.5219   54.7526 H       1  ZINC001091652821    0.2100
     37 H37       -10.5011    1.6742   56.5648 H       1  ZINC001091652821    0.0900
     38 H38       -11.1642    1.2093   54.9797 H       1  ZINC001091652821    0.1000
     39 H39       -10.4794   -0.0316   56.0566 H       1  ZINC001091652821    0.1000
     40 H40        -7.4293    3.1952   52.2189 H       1  ZINC001091652821    0.0900
     41 H41        -5.6678    2.9586   52.4360 H       1  ZINC001091652821    0.0500
     42 H42        -7.9221    4.8496   50.4680 H       1  ZINC001091652821    0.0600
     43 H43        -7.3317    4.5159   48.8223 H       1  ZINC001091652821    0.0600
     44 H44        -8.3010    3.2970   49.6843 H       1  ZINC001091652821    0.0700
     45 H45        -5.0752    4.8585   51.5367 H       1  ZINC001091652821    0.0900
     46 H46        -5.3015    5.3296   49.8280 H       1  ZINC001091652821    0.0800
     47 H47        -0.6363    2.7132   52.1389 H       1  ZINC001091652821    0.1500
@<TRIPOS>BOND
     1     1     2    1
     2     1    26    1
     3     1    27    1
     4     1    28    1
     5     2    25    1
     6     2     3    2
     7     3     4    1
     8     3    29    1
     9     4     5    1
    10     5     6    1
    11     5    25    2
    12     6     7    2
    13     6     8   am
    14     8    24    1
    15     8     9    1
    16     9    10    1
    17     9    30    1
    18     9    31    1
    19    10    11    1
    20    10    22    1
    21    10    12    1
    22    12    13    1
    23    12    32    1
    24    12    33    1
    25    13    14    1
    26    13    21    1
    27    14    15    1
    28    14    34    1
    29    14    35    1
    30    15    20    1
    31    15    16    2
    32    16    17    1
    33    16    36    1
    34    17    18    1
    35    18    19    1
    36    18    20    2
    37    19    37    1
    38    19    38    1
    39    19    39    1
    40    21    22    1
    41    21    40    1
    42    21    41    1
    43    22    23    1
    44    22    24    1
    45    23    42    1
    46    23    43    1
    47    23    44    1
    48    24    45    1
    49    24    46    1
    50    25    47    1
@<TRIPOS>SUBSTRUCTURE
     1 ZINC001091652821        1 TEMP              0 ****  ****    0 ROOT


##########                                Name:    ZINC000506388363
##########                DOCK_Rotatable_Bonds:                   5
##########                         Heavy_Atoms:                  29
##########                    Molecular_Weight:             416.858
##########                DOCK_Rotatable_Bonds:                   5
##########                       Formal_Charge:         7.07805e-07
##########                     HBond_Acceptors:                   8
##########                        HBond_Donors:                   1
##########                         Heavy_Atoms:                  29
##########                          Grid_Score:          -27.605190
##########                     Grid_vdw_energy:          -27.154467
##########                      Grid_es_energy:           -0.450724
##########           Internal_energy_repulsive:           11.701205

@<TRIPOS>MOLECULE
ZINC000506388363
 48 51 1 0 0
SMALL
USER_CHARGES


@<TRIPOS>ATOM
      1 O1         -0.7290    2.1673   48.1759 O.2     1  ZINC000506388363   -0.5300
      2 C2         -0.9957    2.7651   49.2001 C.2     1  ZINC000506388363    0.5600
      3 C3          0.0900    3.3238   50.0339 C.ar    1  ZINC000506388363   -0.1200
      4 C4          0.2068    4.7047   50.1991 C.ar    1  ZINC000506388363   -0.0900
      5 C5          1.2217    5.2203   50.9788 C.ar    1  ZINC000506388363   -0.1100
      6 C6          2.1232    4.3720   51.5960 C.ar    1  ZINC000506388363   -0.0900
      7 C7          2.0136    3.0008   51.4365 C.ar    1  ZINC000506388363   -0.0400
      8 Cl8         3.1497    1.9443   52.2155 Cl      1  ZINC000506388363   -0.0600
      9 C9          0.9990    2.4721   50.6636 C.ar    1  ZINC000506388363   -0.0600
     10 N10        -2.2812    2.9234   49.5729 N.am    1  ZINC000506388363   -0.6100
     11 C11        -3.3760    2.3703   48.7612 C.3     1  ZINC000506388363    0.1000
     12 C12        -4.2934    1.5509   49.6751 C.3     1  ZINC000506388363    0.0400
     13 N13        -4.7194    2.3824   50.8088 N.3     1  ZINC000506388363   -0.5300
     14 C14        -5.7344    1.6921   51.6157 C.3     1  ZINC000506388363    0.1200
     15 C15        -7.0155    2.4857   51.5974 C.2     1  ZINC000506388363   -0.2100
     16 C16        -7.5467    3.1142   50.5261 C.2     1  ZINC000506388363    0.0600
     17 N17        -8.6934    3.7096   50.9184 N.pl3   1  ZINC000506388363   -0.4700
     18 N18        -8.8803    3.4414   52.2804 N.2     1  ZINC000506388363   -0.2700
     19 C19        -7.8749    2.6989   52.6929 C.2     1  ZINC000506388363    0.1300
     20 C20        -7.6762    2.1860   54.0711 C.ar    1  ZINC000506388363   -0.0700
     21 C21        -8.5441    1.2269   54.5936 C.ar    1  ZINC000506388363    0.1500
     22 F22        -9.5683    0.7615   53.8456 F       1  ZINC000506388363   -0.1200
     23 C23        -8.3533    0.7533   55.8785 C.ar    1  ZINC000506388363   -0.1600
     24 C24        -7.3052    1.2282   56.6453 C.ar    1  ZINC000506388363   -0.0500
     25 C25        -6.4413    2.1791   56.1334 C.ar    1  ZINC000506388363   -0.1600
     26 C26        -6.6173    2.6568   54.8479 C.ar    1  ZINC000506388363    0.1600
     27 F27        -5.7727    3.5857   54.3491 F       1  ZINC000506388363   -0.1200
     28 C28        -3.5733    2.7839   51.6354 C.3     1  ZINC000506388363    0.0400
     29 C29        -2.6260    3.6484   50.8051 C.3     1  ZINC000506388363    0.1200
     30 H30        -0.4959    5.3684   49.7173 H       1  ZINC000506388363    0.1400
     31 H31         1.3126    6.2888   51.1071 H       1  ZINC000506388363    0.1400
     32 H32         2.9162    4.7810   52.2045 H       1  ZINC000506388363    0.1400
     33 H33         0.9139    1.4027   50.5399 H       1  ZINC000506388363    0.1400
     34 H34        -3.9425    3.1836   48.3078 H       1  ZINC000506388363    0.0800
     35 H35        -2.9658    1.7274   47.9825 H       1  ZINC000506388363    0.1000
     36 H36        -5.1691    1.2251   49.1137 H       1  ZINC000506388363    0.0900
     37 H37        -3.7536    0.6796   50.0457 H       1  ZINC000506388363    0.0400
     38 H38        -5.9154    0.7005   51.2013 H       1  ZINC000506388363    0.1000
     39 H39        -5.3801    1.5979   52.6422 H       1  ZINC000506388363    0.0400
     40 H40        -7.1277    3.1368   49.5309 H       1  ZINC000506388363    0.1800
     41 H41        -9.2848    4.2328   50.3549 H       1  ZINC000506388363    0.4400
     42 H42        -9.0247    0.0109   56.2843 H       1  ZINC000506388363    0.1500
     43 H43        -7.1607    0.8553   57.6485 H       1  ZINC000506388363    0.1500
     44 H44        -5.6248    2.5462   56.7375 H       1  ZINC000506388363    0.1500
     45 H45        -3.9268    3.3521   52.4958 H       1  ZINC000506388363    0.0900
     46 H46        -3.0435    1.8953   51.9787 H       1  ZINC000506388363    0.0400
     47 H47        -1.7210    3.8531   51.3770 H       1  ZINC000506388363    0.1000
     48 H48        -3.1184    4.5858   50.5457 H       1  ZINC000506388363    0.0800
@<TRIPOS>BOND
     1     1     2    2
     2     2     3    1
     3     2    10   am
     4     3     9   ar
     5     3     4   ar
     6     4     5   ar
     7     4    30    1
     8     5     6   ar
     9     5    31    1
    10     6     7   ar
    11     6    32    1
    12     7     8    1
    13     7     9   ar
    14     9    33    1
    15    10    29    1
    16    10    11    1
    17    11    12    1
    18    11    34    1
    19    11    35    1
    20    12    13    1
    21    12    36    1
    22    12    37    1
    23    13    14    1
    24    13    28    1
    25    14    15    1
    26    14    38    1
    27    14    39    1
    28    15    19    1
    29    15    16    2
    30    16    17    1
    31    16    40    1
    32    17    18    1
    33    17    41    1
    34    18    19    2
    35    19    20    1
    36    20    26   ar
    37    20    21   ar
    38    21    22    1
    39    21    23   ar
    40    23    24   ar
    41    23    42    1
    42    24    25   ar
    43    24    43    1
    44    25    26   ar
    45    25    44    1
    46    26    27    1
    47    28    29    1
    48    28    45    1
    49    28    46    1
    50    29    47    1
    51    29    48    1
@<TRIPOS>SUBSTRUCTURE
     1 ZINC000506388363        1 TEMP              0 ****  ****    0 ROOT


##########                                Name:    ZINC000845755710
##########                DOCK_Rotatable_Bonds:                   3
##########                         Heavy_Atoms:                  24
##########                    Molecular_Weight:             349.814
##########                DOCK_Rotatable_Bonds:                   3
##########                       Formal_Charge:         -0.00999974
##########                     HBond_Acceptors:                   6
##########                        HBond_Donors:                   0
##########                         Heavy_Atoms:                  24
##########                          Grid_Score:          -27.588696
##########                     Grid_vdw_energy:          -27.584446
##########                      Grid_es_energy:           -0.004249
##########           Internal_energy_repulsive:           16.724962

@<TRIPOS>MOLECULE
ZINC000845755710
 44 47 1 0 0
SMALL
USER_CHARGES


@<TRIPOS>ATOM
      1 C1         -7.9903   -0.6774   52.1945 C.3     1  ZINC000845755710   -0.1700
      2 C2         -8.2483    0.8307   52.2041 C.3     1  ZINC000845755710    0.2600
      3 C3         -7.3001    1.5207   51.2214 C.3     1  ZINC000845755710   -0.0900
      4 C4         -7.6301    3.0137   51.1575 C.3     1  ZINC000845755710   -0.1300
      5 C5         -6.7018    3.6949   50.1471 C.3     1  ZINC000845755710    0.1100
      6 N6         -5.3091    3.3998   50.5107 N.am    1  ZINC000845755710   -0.6000
      7 C7         -4.4176    4.3963   50.6795 C.2     1  ZINC000845755710    0.5900
      8 O8         -4.7631    5.5533   50.5309 O.2     1  ZINC000845755710   -0.5200
      9 C9         -3.0270    4.0851   51.0435 C.2     1  ZINC000845755710   -0.2200
     10 C10        -2.4081    4.3510   52.2257 C.2     1  ZINC000845755710    0.0600
     11 O11        -1.1425    3.9188   52.1835 O.3     1  ZINC000845755710   -0.1800
     12 C12        -0.8563    3.3525   50.9927 C.ar    1  ZINC000845755710    0.0500
     13 C13         0.2913    2.7692   50.4704 C.ar    1  ZINC000845755710   -0.0900
     14 C14         0.2847    2.2631   49.1879 C.ar    1  ZINC000845755710   -0.0800
     15 C15        -0.8605    2.3299   48.4074 C.ar    1  ZINC000845755710   -0.0400
     16 Cl16       -0.8476    1.6872   46.7946 Cl      1  ZINC000845755710   -0.0600
     17 C17        -2.0096    2.9053   48.9096 C.ar    1  ZINC000845755710   -0.0500
     18 C18        -2.0146    3.4136   50.2040 C.ar    1  ZINC000845755710   -0.0900
     19 C19        -4.9071    1.9978   50.6873 C.3     1  ZINC000845755710    0.1000
     20 C20        -5.8556    1.3356   51.6916 C.3     1  ZINC000845755710   -0.1300
     21 O21        -9.6092    1.0903   51.8207 O.3     1  ZINC000845755710   -0.3700
     22 C22       -10.3287    1.2150   53.0710 C.3     1  ZINC000845755710    0.0100
     23 C23        -9.2807    1.9195   53.9682 C.3     1  ZINC000845755710    0.0200
     24 O24        -8.0338    1.3477   53.5241 O.3     1  ZINC000845755710   -0.3800
     25 H25        -8.6632   -1.1657   52.8993 H       1  ZINC000845755710    0.0600
     26 H26        -8.1662   -1.0696   51.1928 H       1  ZINC000845755710    0.0800
     27 H27        -6.9575   -0.8711   52.4844 H       1  ZINC000845755710    0.0800
     28 H28        -7.4192    1.0799   50.2317 H       1  ZINC000845755710    0.0900
     29 H29        -8.6663    3.1442   50.8451 H       1  ZINC000845755710    0.0800
     30 H30        -7.4874    3.4604   52.1414 H       1  ZINC000845755710    0.0800
     31 H31        -6.9070    3.3131   49.1470 H       1  ZINC000845755710    0.0700
     32 H32        -6.8649    4.7724   50.1697 H       1  ZINC000845755710    0.1000
     33 H33        -2.8695    4.8383   53.0718 H       1  ZINC000845755710    0.2200
     34 H34         1.1886    2.7125   51.0687 H       1  ZINC000845755710    0.1500
     35 H35         1.1796    1.8107   48.7868 H       1  ZINC000845755710    0.1500
     36 H36        -2.9012    2.9574   48.3022 H       1  ZINC000845755710    0.1400
     37 H37        -4.9660    1.4775   49.7313 H       1  ZINC000845755710    0.0800
     38 H38        -3.8859    1.9554   51.0664 H       1  ZINC000845755710    0.0900
     39 H39        -5.7294    1.7980   52.6706 H       1  ZINC000845755710    0.0700
     40 H40        -5.6285    0.2717   51.7595 H       1  ZINC000845755710    0.0800
     41 H41       -11.2177    1.8340   52.9495 H       1  ZINC000845755710    0.1100
     42 H42       -10.5892    0.2350   53.4708 H       1  ZINC000845755710    0.0800
     43 H43        -9.2919    2.9965   53.8007 H       1  ZINC000845755710    0.0800
     44 H44        -9.4569    1.6902   55.0191 H       1  ZINC000845755710    0.1000
@<TRIPOS>BOND
     1     1     2    1
     2     1    25    1
     3     1    26    1
     4     1    27    1
     5     2    24    1
     6     2     3    1
     7     2    21    1
     8     3    20    1
     9     3     4    1
    10     3    28    1
    11     4     5    1
    12     4    29    1
    13     4    30    1
    14     5     6    1
    15     5    31    1
    16     5    32    1
    17     6     7   am
    18     6    19    1
    19     7     8    2
    20     7     9    1
    21     9    18    1
    22     9    10    2
    23    10    11    1
    24    10    33    1
    25    11    12    1
    26    12    18   ar
    27    12    13   ar
    28    13    14   ar
    29    13    34    1
    30    14    15   ar
    31    14    35    1
    32    15    16    1
    33    15    17   ar
    34    17    18   ar
    35    17    36    1
    36    19    20    1
    37    19    37    1
    38    19    38    1
    39    20    39    1
    40    20    40    1
    41    21    22    1
    42    22    23    1
    43    22    41    1
    44    22    42    1
    45    23    24    1
    46    23    43    1
    47    23    44    1
@<TRIPOS>SUBSTRUCTURE
     1 ZINC000845755710        1 TEMP              0 ****  ****    0 ROOT


##########                                Name:    ZINC001625935330
##########                DOCK_Rotatable_Bonds:                   5
##########                         Heavy_Atoms:                  25
##########                    Molecular_Weight:             327.385
##########                DOCK_Rotatable_Bonds:                   5
##########                       Formal_Charge:           0.0199995
##########                     HBond_Acceptors:                   4
##########                        HBond_Donors:                   1
##########                         Heavy_Atoms:                  25
##########                          Grid_Score:          -27.585695
##########                     Grid_vdw_energy:          -27.411850
##########                      Grid_es_energy:           -0.173845
##########           Internal_energy_repulsive:           16.445372

@<TRIPOS>MOLECULE
ZINC001625935330
 42 44 1 0 0
SMALL
USER_CHARGES


@<TRIPOS>ATOM
      1 C1         -2.6302    4.3823   50.1559 C.3     1  ZINC001625935330   -0.1600
      2 C2         -2.2424    2.9083   50.2897 C.3     1  ZINC001625935330    0.1800
      3 H3         -1.6661    2.7658   51.2039 H       1  ZINC001625935330    0.1000
      4 N4         -3.4546    2.0873   50.3436 N.am    1  ZINC001625935330   -0.7100
      5 C5         -4.2075    2.0698   51.4613 C.2     1  ZINC001625935330    0.5800
      6 O6         -3.8800    2.7337   52.4250 O.2     1  ZINC001625935330   -0.5300
      7 C7         -5.4345    1.2410   51.5152 C.ar    1  ZINC001625935330    0.0800
      8 C8         -6.2809    1.3349   52.6145 C.ar    1  ZINC001625935330   -0.1000
      9 C9         -7.4344    0.5463   52.6488 C.ar    1  ZINC001625935330    0.0000
     10 C10        -8.3678    0.6124   53.8002 C.ar    1  ZINC001625935330   -0.0600
     11 C11        -8.1246    1.4985   54.8478 C.ar    1  ZINC001625935330   -0.1000
     12 C12        -8.9965    1.5562   55.9160 C.ar    1  ZINC001625935330   -0.1200
     13 C13       -10.1102    0.7364   55.9481 C.ar    1  ZINC001625935330   -0.1100
     14 C14       -10.3566   -0.1452   54.9109 C.ar    1  ZINC001625935330   -0.1200
     15 C15        -9.4942   -0.2074   53.8352 C.ar    1  ZINC001625935330   -0.1000
     16 C16        -7.6854   -0.3055   51.5705 C.ar    1  ZINC001625935330   -0.1400
     17 C17        -6.7920   -0.3394   50.5145 C.ar    1  ZINC001625935330    0.1100
     18 N18        -5.7177    0.4198   50.5106 N.ar    1  ZINC001625935330   -0.4600
     19 C19        -1.4103    2.4979   49.1022 C.ar    1  ZINC001625935330   -0.0900
     20 C20        -2.0225    2.2222   47.8927 C.ar    1  ZINC001625935330   -0.0800
     21 C21        -1.2659    1.8448   46.7972 C.ar    1  ZINC001625935330   -0.1100
     22 C22         0.1052    1.7415   46.9044 C.ar    1  ZINC001625935330   -0.0700
     23 C23         0.7298    2.0189   48.1223 C.ar    1  ZINC001625935330   -0.0200
     24 C24         2.1531    1.9139   48.2411 C.1     1  ZINC001625935330    0.2500
     25 N25         3.2821    1.8305   48.3353 N.1     1  ZINC001625935330   -0.4100
     26 C26        -0.0391    2.4038   49.2223 C.ar    1  ZINC001625935330   -0.0600
     27 H27        -1.7283    4.9931   50.1159 H       1  ZINC001625935330    0.0700
     28 H28        -3.2065    4.5248   49.2418 H       1  ZINC001625935330    0.0600
     29 H29        -3.2321    4.6790   51.0149 H       1  ZINC001625935330    0.0700
     30 H30        -3.7155    1.5566   49.5748 H       1  ZINC001625935330    0.4100
     31 H31        -6.0507    2.0061   53.4286 H       1  ZINC001625935330    0.1500
     32 H32        -7.2551    2.1388   54.8239 H       1  ZINC001625935330    0.1300
     33 H33        -8.8087    2.2423   56.7286 H       1  ZINC001625935330    0.1300
     34 H34       -10.7897    0.7845   56.7862 H       1  ZINC001625935330    0.1300
     35 H35       -11.2275   -0.7831   54.9412 H       1  ZINC001625935330    0.1300
     36 H36        -9.6877   -0.8957   53.0258 H       1  ZINC001625935330    0.1300
     37 H37        -8.5662   -0.9304   51.5613 H       1  ZINC001625935330    0.1400
     38 H38        -6.9816   -0.9966   49.6787 H       1  ZINC001625935330    0.1700
     39 H39        -3.0958    2.3015   47.8032 H       1  ZINC001625935330    0.1300
     40 H40        -1.7504    1.6302   45.8561 H       1  ZINC001625935330    0.1400
     41 H41         0.6944    1.4465   46.0488 H       1  ZINC001625935330    0.1400
     42 H42         0.4377    2.6197   50.1670 H       1  ZINC001625935330    0.1400
@<TRIPOS>BOND
     1     1     2    1
     2     1    27    1
     3     1    28    1
     4     1    29    1
     5     2     3    1
     6     2     4    1
     7     2    19    1
     8     4     5   am
     9     4    30    1
    10     5     6    2
    11     5     7    1
    12     7    18   ar
    13     7     8   ar
    14     8     9   ar
    15     8    31    1
    16     9    10    1
    17     9    16   ar
    18    10    15   ar
    19    10    11   ar
    20    11    12   ar
    21    11    32    1
    22    12    13   ar
    23    12    33    1
    24    13    14   ar
    25    13    34    1
    26    14    15   ar
    27    14    35    1
    28    15    36    1
    29    16    17   ar
    30    16    37    1
    31    17    18   ar
    32    17    38    1
    33    19    26   ar
    34    19    20   ar
    35    20    21   ar
    36    20    39    1
    37    21    22   ar
    38    21    40    1
    39    22    23   ar
    40    22    41    1
    41    23    24    1
    42    23    26   ar
    43    24    25    3
    44    26    42    1
@<TRIPOS>SUBSTRUCTURE
     1 ZINC001625935330        1 TEMP              0 ****  ****    0 ROOT


##########                                Name:    ZINC000965273005
##########                DOCK_Rotatable_Bonds:                   7
##########                         Heavy_Atoms:                  27
##########                    Molecular_Weight:             368.436
##########                DOCK_Rotatable_Bonds:                   7
##########                       Formal_Charge:           0.0100003
##########                     HBond_Acceptors:                   7
##########                        HBond_Donors:                   2
##########                         Heavy_Atoms:                  27
##########                          Grid_Score:          -27.584911
##########                     Grid_vdw_energy:          -26.563581
##########                      Grid_es_energy:           -1.021330
##########           Internal_energy_repulsive:           20.062151

@<TRIPOS>MOLECULE
ZINC000965273005
 51 54 1 0 0
SMALL
USER_CHARGES


@<TRIPOS>ATOM
      1 C1         -2.6681    5.2270   53.0106 C.3     1  ZINC000965273005   -0.1200
      2 C2         -1.7532    4.2772   52.2815 C.ar    1  ZINC000965273005   -0.0300
      3 C3         -0.4779    4.0464   52.7539 C.ar    1  ZINC000965273005   -0.1200
      4 C4          0.3636    3.1746   52.0856 C.ar    1  ZINC000965273005   -0.0900
      5 C5         -0.0675    2.5285   50.9409 C.ar    1  ZINC000965273005   -0.1300
      6 C6         -1.3407    2.7504   50.4577 C.ar    1  ZINC000965273005   -0.0900
      7 C7         -2.1962    3.6245   51.1299 C.ar    1  ZINC000965273005   -0.1300
      8 C8         -3.5618    3.8670   50.6178 C.2     1  ZINC000965273005    0.5800
      9 O9         -3.8819    4.9781   50.2431 O.2     1  ZINC000965273005   -0.5200
     10 N10        -4.4517    2.8562   50.5667 N.am    1  ZINC000965273005   -0.6100
     11 C11        -4.1999    1.4674   50.9929 C.3     1  ZINC000965273005    0.0900
     12 C12        -5.6001    0.8949   51.3263 C.3     1  ZINC000965273005    0.1500
     13 H13        -5.6118   -0.1907   51.2283 H       1  ZINC000965273005    0.1200
     14 N14        -6.0288    1.3029   52.6665 N.am    1  ZINC000965273005   -0.7100
     15 C15        -7.0941    0.7114   53.2424 C.2     1  ZINC000965273005    0.6000
     16 O16        -7.7005   -0.1599   52.6490 O.2     1  ZINC000965273005   -0.5400
     17 C17        -7.5244    1.1207   54.5918 C.2     1  ZINC000965273005   -0.2800
     18 C18        -6.7952    1.8713   55.4919 C.2     1  ZINC000965273005    0.1000
     19 N19        -7.5467    2.0179   56.5948 N.pl3   1  ZINC000965273005   -0.3600
     20 C20        -7.1591    2.7486   57.8039 C.3     1  ZINC000965273005    0.1000
     21 N21        -8.7629    1.3555   56.3944 N.2     1  ZINC000965273005   -0.3000
     22 C22        -8.7629    0.8232   55.2035 C.2     1  ZINC000965273005    0.1700
     23 C23        -9.8831    0.0224   54.5913 C.3     1  ZINC000965273005   -0.0800
     24 C24       -11.0957   -0.2845   55.4725 C.3     1  ZINC000965273005   -0.1700
     25 C25       -11.2110    0.7407   54.3426 C.3     1  ZINC000965273005   -0.1600
     26 C26        -6.4774    1.5615   50.2339 C.3     1  ZINC000965273005    0.0900
     27 H27        -6.4200    1.0034   49.2994 H       1  ZINC000965273005    0.0900
     28 O28        -7.8331    1.6722   50.6720 O.3     1  ZINC000965273005   -0.5500
     29 C29        -5.8363    2.9569   50.0826 C.3     1  ZINC000965273005    0.0600
     30 H30        -3.3060    4.6653   53.6930 H       1  ZINC000965273005    0.0800
     31 H31        -2.0723    5.9431   53.5766 H       1  ZINC000965273005    0.0700
     32 H32        -3.2880    5.7598   52.2895 H       1  ZINC000965273005    0.0700
     33 H33        -0.1353    4.5476   53.6471 H       1  ZINC000965273005    0.1300
     34 H34         1.3613    2.9979   52.4593 H       1  ZINC000965273005    0.1300
     35 H35         0.5942    1.8492   50.4240 H       1  ZINC000965273005    0.1300
     36 H36        -1.6759    2.2457   49.5636 H       1  ZINC000965273005    0.1300
     37 H37        -3.7406    0.8996   50.1837 H       1  ZINC000965273005    0.0900
     38 H38        -3.5632    1.4517   51.8775 H       1  ZINC000965273005    0.0900
     39 H39        -5.5459    1.9987   53.1393 H       1  ZINC000965273005    0.4000
     40 H40        -5.8024    2.2674   55.3377 H       1  ZINC000965273005    0.1800
     41 H41        -7.4676    3.7901   57.7137 H       1  ZINC000965273005    0.0800
     42 H42        -7.6440    2.2998   58.6709 H       1  ZINC000965273005    0.1000
     43 H43        -6.0772    2.6995   57.9269 H       1  ZINC000965273005    0.0900
     44 H44        -9.5791   -0.7369   53.8708 H       1  ZINC000965273005    0.1400
     45 H45       -11.5895   -1.2460   55.3321 H       1  ZINC000965273005    0.1000
     46 H46       -11.0831    0.0929   56.4951 H       1  ZINC000965273005    0.1000
     47 H47       -11.2743    1.7924   54.6219 H       1  ZINC000965273005    0.0900
     48 H48       -11.7807    0.4536   53.4589 H       1  ZINC000965273005    0.1000
     49 H49        -8.4845    1.5727   49.9644 H       1  ZINC000965273005    0.3900
     50 H50        -6.3894    3.6853   50.6756 H       1  ZINC000965273005    0.0800
     51 H51        -5.8363    3.2532   49.0336 H       1  ZINC000965273005    0.0800
@<TRIPOS>BOND
     1     1     2    1
     2     1    30    1
     3     1    31    1
     4     1    32    1
     5     2     7   ar
     6     2     3   ar
     7     3     4   ar
     8     3    33    1
     9     4     5   ar
    10     4    34    1
    11     5     6   ar
    12     5    35    1
    13     6     7   ar
    14     6    36    1
    15     7     8    1
    16     8     9    2
    17     8    10   am
    18    10    29    1
    19    10    11    1
    20    11    12    1
    21    11    37    1
    22    11    38    1
    23    12    13    1
    24    12    14    1
    25    12    26    1
    26    14    15   am
    27    14    39    1
    28    15    16    2
    29    15    17    1
    30    17    22    1
    31    17    18    2
    32    18    19    1
    33    18    40    1
    34    19    20    1
    35    19    21    1
    36    20    41    1
    37    20    42    1
    38    20    43    1
    39    21    22    2
    40    22    23    1
    41    23    25    1
    42    23    24    1
    43    23    44    1
    44    24    25    1
    45    24    45    1
    46    24    46    1
    47    25    47    1
    48    25    48    1
    49    26    27    1
    50    26    28    1
    51    26    29    1
    52    28    49    1
    53    29    50    1
    54    29    51    1
@<TRIPOS>SUBSTRUCTURE
     1 ZINC000965273005        1 TEMP              0 ****  ****    0 ROOT


##########                                Name:    ZINC000186105981
##########                DOCK_Rotatable_Bonds:                   6
##########                         Heavy_Atoms:                  26
##########                    Molecular_Weight:             396.873
##########                DOCK_Rotatable_Bonds:                   6
##########                       Formal_Charge:          -0.0400003
##########                     HBond_Acceptors:                   9
##########                        HBond_Donors:                   1
##########                         Heavy_Atoms:                  26
##########                          Grid_Score:          -27.530951
##########                     Grid_vdw_energy:          -27.557501
##########                      Grid_es_energy:            0.026550
##########           Internal_energy_repulsive:           23.692549

@<TRIPOS>MOLECULE
ZINC000186105981
 44 46 1 0 0
SMALL
USER_CHARGES


@<TRIPOS>ATOM
      1 C1          3.9699    3.2518   46.4665 C.3     1  ZINC000186105981   -0.1400
      2 C2          2.4611    3.2353   46.7200 C.3     1  ZINC000186105981   -0.1100
      3 C3          1.7271    2.9413   45.4102 C.3     1  ZINC000186105981   -0.1600
      4 C4          2.1282    2.1501   47.7458 C.3     1  ZINC000186105981    0.1600
      5 H5          2.5682    1.2043   47.4300 H       1  ZINC000186105981    0.1200
      6 C6          0.6324    1.9986   47.8493 C.2     1  ZINC000186105981    0.4900
      7 O7          0.0384    1.2929   47.0619 O.2     1  ZINC000186105981   -0.4300
      8 N8         -0.0453    2.6474   48.8169 N.am    1  ZINC000186105981   -0.6300
      9 C9         -1.4247    2.5077   48.9124 C.2     1  ZINC000186105981    0.2400
     10 N10        -2.2158    2.0525   47.9830 N.2     1  ZINC000186105981   -0.2600
     11 N11        -3.4490    1.9923   48.2400 N.2     1  ZINC000186105981   -0.2000
     12 C12        -3.8423    2.3900   49.4174 C.2     1  ZINC000186105981    0.0300
     13 C13        -5.2348    2.3993   49.9131 C.ar    1  ZINC000186105981   -0.0500
     14 C14        -5.9112    3.6100   50.0839 C.ar    1  ZINC000186105981    0.1300
     15 F15        -5.2941    4.7771   49.7964 F       1  ZINC000186105981   -0.1200
     16 C16        -7.2134    3.6104   50.5474 C.ar    1  ZINC000186105981   -0.1400
     17 C17        -7.8462    2.4164   50.8414 C.ar    1  ZINC000186105981   -0.0600
     18 C18        -7.1819    1.2141   50.6749 C.ar    1  ZINC000186105981   -0.1200
     19 C19        -5.8829    1.1976   50.2073 C.ar    1  ZINC000186105981    0.0200
     20 Cl20       -5.0524   -0.3125   49.9989 Cl      1  ZINC000186105981   -0.0100
     21 S21        -2.4152    2.9081   50.3170 S.3     1  ZINC000186105981    0.1200
     22 N22         2.6721    2.5296   49.0522 N.am    1  ZINC000186105981   -0.6100
     23 C23         2.8555    3.9146   49.5021 C.3     1  ZINC000186105981    0.1000
     24 C24         3.0234    3.8309   51.0355 C.3     1  ZINC000186105981   -0.1300
     25 C25         3.5641    2.3935   51.2155 C.3     1  ZINC000186105981   -0.1600
     26 C26         3.0618    1.6543   49.9949 C.2     1  ZINC000186105981    0.5200
     27 O27         3.0232    0.4475   49.8806 O.2     1  ZINC000186105981   -0.5000
     28 H28         4.2070    4.0249   45.7357 H       1  ZINC000186105981    0.0600
     29 H29         4.4928    3.4612   47.3996 H       1  ZINC000186105981    0.0600
     30 H30         4.2846    2.2810   46.0837 H       1  ZINC000186105981    0.0600
     31 H31         2.1464    4.2061   47.1029 H       1  ZINC000186105981    0.0900
     32 H32         1.9702    1.9327   45.0759 H       1  ZINC000186105981    0.0600
     33 H33         0.6519    3.0218   45.5703 H       1  ZINC000186105981    0.0600
     34 H34         2.0362    3.6599   44.6512 H       1  ZINC000186105981    0.0700
     35 H35         0.4297    3.2118   49.4468 H       1  ZINC000186105981    0.4200
     36 H36        -7.7377    4.5451   50.6804 H       1  ZINC000186105981    0.1500
     37 H37        -8.8638    2.4224   51.2032 H       1  ZINC000186105981    0.1500
     38 H38        -7.6825    0.2856   50.9070 H       1  ZINC000186105981    0.1500
     39 H39         3.7485    4.3436   49.0477 H       1  ZINC000186105981    0.0700
     40 H40         1.9792    4.5120   49.2506 H       1  ZINC000186105981    0.0800
     41 H41         3.7456    4.5665   51.3896 H       1  ZINC000186105981    0.0900
     42 H42         2.0649    3.9532   51.5400 H       1  ZINC000186105981    0.0800
     43 H43         4.6537    2.3964   51.2429 H       1  ZINC000186105981    0.1100
     44 H44         3.1599    1.9447   52.1230 H       1  ZINC000186105981    0.1000
@<TRIPOS>BOND
     1     1     2    1
     2     1    28    1
     3     1    29    1
     4     1    30    1
     5     2     3    1
     6     2     4    1
     7     2    31    1
     8     3    32    1
     9     3    33    1
    10     3    34    1
    11     4     5    1
    12     4     6    1
    13     4    22    1
    14     6     7    2
    15     6     8   am
    16     8     9    1
    17     8    35    1
    18     9    21    1
    19     9    10    2
    20    10    11    1
    21    11    12    2
    22    12    13    1
    23    12    21    1
    24    13    19   ar
    25    13    14   ar
    26    14    15    1
    27    14    16   ar
    28    16    17   ar
    29    16    36    1
    30    17    18   ar
    31    17    37    1
    32    18    19   ar
    33    18    38    1
    34    19    20    1
    35    22    26   am
    36    22    23    1
    37    23    24    1
    38    23    39    1
    39    23    40    1
    40    24    25    1
    41    24    41    1
    42    24    42    1
    43    25    26    1
    44    25    43    1
    45    25    44    1
    46    26    27    2
@<TRIPOS>SUBSTRUCTURE
     1 ZINC000186105981        1 TEMP              0 ****  ****    0 ROOT


##########                                Name:    ZINC000055987960
##########                DOCK_Rotatable_Bonds:                   6
##########                         Heavy_Atoms:                  28
##########                    Molecular_Weight:             404.868
##########                DOCK_Rotatable_Bonds:                   6
##########                       Formal_Charge:          0.00999941
##########                     HBond_Acceptors:                   7
##########                        HBond_Donors:                   1
##########                         Heavy_Atoms:                  28
##########                          Grid_Score:          -27.493942
##########                     Grid_vdw_energy:          -28.882139
##########                      Grid_es_energy:            1.388197
##########           Internal_energy_repulsive:           14.547157

@<TRIPOS>MOLECULE
ZINC000055987960
 50 52 1 0 0
SMALL
USER_CHARGES


@<TRIPOS>ATOM
      1 C1        -10.5501   -0.3137   61.7104 C.3     1  ZINC000055987960   -0.1800
      2 C2         -9.5222    0.6461   62.3130 C.3     1  ZINC000055987960    0.0700
      3 H3         -9.3985    0.4279   63.3738 H       1  ZINC000055987960    0.1200
      4 C4         -8.1788    0.4744   61.5949 C.3     1  ZINC000055987960    0.0800
      5 N5         -8.3281    0.9515   60.2110 N.am    1  ZINC000055987960   -0.6100
      6 C6         -7.9376    0.1911   59.1690 C.2     1  ZINC000055987960    0.5700
      7 O7         -7.4536   -0.9069   59.3654 O.2     1  ZINC000055987960   -0.5300
      8 C8         -8.0973    0.6911   57.7896 C.ar    1  ZINC000055987960   -0.1500
      9 C9         -9.1759    0.2640   57.0104 C.ar    1  ZINC000055987960   -0.0700
     10 C10        -9.3222    0.7326   55.7241 C.ar    1  ZINC000055987960   -0.1500
     11 C11        -8.3976    1.6306   55.1999 C.ar    1  ZINC000055987960    0.1700
     12 N12        -8.5490    2.1036   53.8970 N.am    1  ZINC000055987960   -0.6700
     13 C13        -7.5457    1.9631   53.0082 C.2     1  ZINC000055987960    0.5200
     14 O14        -6.5111    1.4252   53.3416 O.2     1  ZINC000055987960   -0.5000
     15 C15        -7.7092    2.4743   51.6000 C.3     1  ZINC000055987960   -0.1100
     16 C16        -6.3876    2.3954   50.8802 C.ar    1  ZINC000055987960   -0.1000
     17 C17        -5.6065    3.5294   50.7404 C.ar    1  ZINC000055987960    0.1300
     18 F18        -6.0284    4.7077   51.2491 F       1  ZINC000055987960   -0.1300
     19 C19        -4.3919    3.4554   50.0791 C.ar    1  ZINC000055987960   -0.1500
     20 C20        -3.9605    2.2500   49.5593 C.ar    1  ZINC000055987960   -0.0700
     21 C21        -4.7407    1.1172   49.6990 C.ar    1  ZINC000055987960   -0.1200
     22 C22        -5.9518    1.1882   50.3639 C.ar    1  ZINC000055987960    0.0000
     23 Cl23       -6.9305   -0.2349   50.5392 Cl      1  ZINC000055987960   -0.0500
     24 C24        -7.3226    2.0578   55.9730 C.ar    1  ZINC000055987960   -0.1200
     25 C25        -7.1734    1.5971   57.2617 C.ar    1  ZINC000055987960   -0.0500
     26 C26        -8.9166    2.2834   59.9982 C.3     1  ZINC000055987960    0.0600
     27 C27       -10.2242    2.3669   60.7940 C.3     1  ZINC000055987960    0.0700
     28 H28       -10.9589    1.6893   60.3592 H       1  ZINC000055987960    0.0700
     29 C29       -10.7597    3.7994   60.7483 C.3     1  ZINC000055987960   -0.1500
     30 O30        -9.9744    1.9927   62.1521 O.3     1  ZINC000055987960   -0.3700
     31 H31       -10.6733   -0.0950   60.6497 H       1  ZINC000055987960    0.0600
     32 H32       -10.2038   -1.3401   61.8319 H       1  ZINC000055987960    0.0700
     33 H33       -11.5055   -0.1898   62.2202 H       1  ZINC000055987960    0.0700
     34 H34        -7.4129    1.0593   62.1044 H       1  ZINC000055987960    0.0800
     35 H35        -7.8961   -0.5782   61.5919 H       1  ZINC000055987960    0.1000
     36 H36        -9.8937   -0.4332   57.4166 H       1  ZINC000055987960    0.1400
     37 H37       -10.1553    0.4027   55.1213 H       1  ZINC000055987960    0.1300
     38 H38        -9.3765    2.5339   53.6303 H       1  ZINC000055987960    0.4200
     39 H39        -8.4456    1.8651   51.0756 H       1  ZINC000055987960    0.1200
     40 H40        -8.0473    3.5102   51.6265 H       1  ZINC000055987960    0.1200
     41 H41        -3.7821    4.3400   49.9694 H       1  ZINC000055987960    0.1500
     42 H42        -3.0135    2.1928   49.0434 H       1  ZINC000055987960    0.1500
     43 H43        -4.4028    0.1757   49.2921 H       1  ZINC000055987960    0.1400
     44 H44        -6.6065    2.7545   55.5629 H       1  ZINC000055987960    0.1500
     45 H45        -6.3388    1.9291   57.8613 H       1  ZINC000055987960    0.1300
     46 H46        -8.2250    3.0503   60.3468 H       1  ZINC000055987960    0.0800
     47 H47        -9.1225    2.4286   58.9378 H       1  ZINC000055987960    0.1100
     48 H48       -10.9462    4.0845   59.7129 H       1  ZINC000055987960    0.0700
     49 H49       -11.6893    3.8579   61.3144 H       1  ZINC000055987960    0.0700
     50 H50       -10.0251    4.4760   61.1849 H       1  ZINC000055987960    0.0700
@<TRIPOS>BOND
     1     1     2    1
     2     1    31    1
     3     1    32    1
     4     1    33    1
     5     2     3    1
     6     2    30    1
     7     2     4    1
     8     4     5    1
     9     4    34    1
    10     4    35    1
    11     5     6   am
    12     5    26    1
    13     6     7    2
    14     6     8    1
    15     8    25   ar
    16     8     9   ar
    17     9    10   ar
    18     9    36    1
    19    10    11   ar
    20    10    37    1
    21    11    12    1
    22    11    24   ar
    23    12    13   am
    24    12    38    1
    25    13    14    2
    26    13    15    1
    27    15    16    1
    28    15    39    1
    29    15    40    1
    30    16    22   ar
    31    16    17   ar
    32    17    18    1
    33    17    19   ar
    34    19    20   ar
    35    19    41    1
    36    20    21   ar
    37    20    42    1
    38    21    22   ar
    39    21    43    1
    40    22    23    1
    41    24    25   ar
    42    24    44    1
    43    25    45    1
    44    26    27    1
    45    26    46    1
    46    26    47    1
    47    27    28    1
    48    27    29    1
    49    27    30    1
    50    29    48    1
    51    29    49    1
    52    29    50    1
@<TRIPOS>SUBSTRUCTURE
     1 ZINC000055987960        1 TEMP              0 ****  ****    0 ROOT


##########                                Name:    ZINC001135312623
##########                DOCK_Rotatable_Bonds:                   3
##########                         Heavy_Atoms:                  25
##########                    Molecular_Weight:             341.323
##########                DOCK_Rotatable_Bonds:                   3
##########                       Formal_Charge:        -1.78814e-07
##########                     HBond_Acceptors:                   8
##########                        HBond_Donors:                   2
##########                         Heavy_Atoms:                  25
##########                          Grid_Score:          -27.489895
##########                     Grid_vdw_energy:          -26.968395
##########                      Grid_es_energy:           -0.521499
##########           Internal_energy_repulsive:            7.266433

@<TRIPOS>MOLECULE
ZINC001135312623
 40 42 1 0 0
SMALL
USER_CHARGES


@<TRIPOS>ATOM
      1 C1         -2.5981    3.7910   52.3038 C.3     1  ZINC001135312623   -0.1300
      2 C2         -2.2957    3.2902   50.9151 C.ar    1  ZINC001135312623   -0.0600
      3 C3         -1.0191    3.4052   50.4016 C.ar    1  ZINC001135312623   -0.1000
      4 C4         -0.7408    2.9462   49.1269 C.ar    1  ZINC001135312623   -0.0300
      5 C5          0.6536    3.0735   48.5696 C.3     1  ZINC001135312623   -0.1300
      6 C6         -1.7390    2.3703   48.3630 C.ar    1  ZINC001135312623   -0.0200
      7 N7         -1.4368    1.8804   46.9993 N.pl3   1  ZINC001135312623    0.0200
      8 O8         -2.2715    1.9792   46.1178 O.2     1  ZINC001135312623   -0.1500
      9 O9         -0.3534    1.3787   46.7586 O.2     1  ZINC001135312623   -0.1500
     10 C10        -3.0179    2.2513   48.8711 C.ar    1  ZINC001135312623   -0.0700
     11 C11        -3.2996    2.7068   50.1524 C.ar    1  ZINC001135312623    0.1500
     12 N12        -4.5933    2.5879   50.6699 N.am    1  ZINC001135312623   -0.6600
     13 C13        -5.2010    1.3851   50.6949 C.2     1  ZINC001135312623    0.5600
     14 O14        -4.6245    0.4035   50.2674 O.2     1  ZINC001135312623   -0.5000
     15 C15        -6.5661    1.2595   51.2410 C.ar    1  ZINC001135312623   -0.1600
     16 C16        -7.2330    0.0329   51.1827 C.ar    1  ZINC001135312623   -0.0400
     17 C17        -8.5078   -0.0836   51.6921 C.ar    1  ZINC001135312623   -0.1500
     18 C18        -9.1289    1.0193   52.2640 C.ar    1  ZINC001135312623    0.2000
     19 N19       -10.4204    0.9240   52.7828 N.am    1  ZINC001135312623   -0.6700
     20 C20       -11.1209    2.0469   53.0398 C.2     1  ZINC001135312623    0.6600
     21 O21       -12.2362    1.9629   53.5147 O.2     1  ZINC001135312623   -0.4900
     22 O22       -10.6001    3.2590   52.7772 O.3     1  ZINC001135312623   -0.3400
     23 C23        -9.1661    3.4217   52.9540 C.3     1  ZINC001135312623    0.1100
     24 C24        -8.4650    2.2436   52.3248 C.ar    1  ZINC001135312623   -0.1800
     25 C25        -7.1925    2.3666   51.8230 C.ar    1  ZINC001135312623    0.0000
     26 H26        -2.4284    2.9905   53.0238 H       1  ZINC001135312623    0.0900
     27 H27        -1.9461    4.6331   52.5364 H       1  ZINC001135312623    0.0800
     28 H28        -3.6385    4.1119   52.3559 H       1  ZINC001135312623    0.0700
     29 H29        -0.2371    3.8545   50.9957 H       1  ZINC001135312623    0.1500
     30 H30         1.2525    2.2213   48.8909 H       1  ZINC001135312623    0.0900
     31 H31         0.6090    3.0966   47.4808 H       1  ZINC001135312623    0.0800
     32 H32         1.1078    3.9948   48.9342 H       1  ZINC001135312623    0.0800
     33 H33        -3.7972    1.8014   48.2738 H       1  ZINC001135312623    0.1700
     34 H34        -5.0533    3.3708   51.0108 H       1  ZINC001135312623    0.4200
     35 H35        -6.7492   -0.8242   50.7379 H       1  ZINC001135312623    0.1400
     36 H36        -9.0236   -1.0313   51.6467 H       1  ZINC001135312623    0.1500
     37 H37       -10.8125    0.0542   52.9575 H       1  ZINC001135312623    0.4300
     38 H38        -8.8401    4.3424   52.4700 H       1  ZINC001135312623    0.1300
     39 H39        -8.9309    3.4618   54.0176 H       1  ZINC001135312623    0.1000
     40 H40        -6.6789    3.3154   51.8742 H       1  ZINC001135312623    0.1500
@<TRIPOS>BOND
     1     1     2    1
     2     1    26    1
     3     1    27    1
     4     1    28    1
     5     2    11   ar
     6     2     3   ar
     7     3     4   ar
     8     3    29    1
     9     4     5    1
    10     4     6   ar
    11     5    30    1
    12     5    31    1
    13     5    32    1
    14     6     7    1
    15     6    10   ar
    16     7     8    2
    17     7     9    2
    18    10    11   ar
    19    10    33    1
    20    11    12    1
    21    12    13   am
    22    12    34    1
    23    13    14    2
    24    13    15    1
    25    15    25   ar
    26    15    16   ar
    27    16    17   ar
    28    16    35    1
    29    17    18   ar
    30    17    36    1
    31    18    24   ar
    32    18    19    1
    33    19    20   am
    34    19    37    1
    35    20    21    2
    36    20    22    1
    37    22    23    1
    38    23    24    1
    39    23    38    1
    40    23    39    1
    41    24    25   ar
    42    25    40    1
@<TRIPOS>SUBSTRUCTURE
     1 ZINC001135312623        1 TEMP              0 ****  ****    0 ROOT


##########                                Name:    ZINC001002468398
##########                DOCK_Rotatable_Bonds:                   7
##########                         Heavy_Atoms:                  24
##########                    Molecular_Weight:             341.358
##########                DOCK_Rotatable_Bonds:                   7
##########                       Formal_Charge:           0.0100001
##########                     HBond_Acceptors:                   8
##########                        HBond_Donors:                   0
##########                         Heavy_Atoms:                  24
##########                          Grid_Score:          -27.458786
##########                     Grid_vdw_energy:          -26.354437
##########                      Grid_es_energy:           -1.104348
##########           Internal_energy_repulsive:           18.312216

@<TRIPOS>MOLECULE
ZINC001002468398
 45 47 1 0 0
SMALL
USER_CHARGES


@<TRIPOS>ATOM
      1 C1          1.4831    3.0990   46.4862 C.3     1  ZINC001002468398   -0.1400
      2 C2          0.4141    2.1963   47.1053 C.3     1  ZINC001002468398   -0.0500
      3 C3          0.4727    2.3056   48.6072 C.2     1  ZINC001002468398    0.0500
      4 C4         -0.5886    2.3582   49.4574 C.2     1  ZINC001002468398   -0.0800
      5 C5         -2.0137    2.3189   49.0828 C.2     1  ZINC001002468398    0.6000
      6 O6         -2.4262    1.4386   48.3520 O.2     1  ZINC001002468398   -0.5300
      7 N7         -2.8597    3.2583   49.5501 N.am    1  ZINC001002468398   -0.6000
      8 C8         -2.3626    4.3187   50.4303 C.3     1  ZINC001002468398    0.0900
      9 C9         -4.2759    3.2192   49.1778 C.3     1  ZINC001002468398    0.1000
     10 C10        -5.1077    2.7744   50.3824 C.3     1  ZINC001002468398    0.1300
     11 H11        -4.6074    3.0653   51.3060 H       1  ZINC001002468398    0.0800
     12 C12        -5.3017    1.2438   50.3501 C.3     1  ZINC001002468398   -0.1300
     13 C13        -6.7627    1.0682   50.8421 C.3     1  ZINC001002468398   -0.1300
     14 C14        -7.4502    2.3119   50.2257 C.3     1  ZINC001002468398    0.1000
     15 N15        -6.4425    3.3881   50.3225 N.am    1  ZINC001002468398   -0.6100
     16 C16        -6.7049    4.7098   50.3491 C.2     1  ZINC001002468398    0.5600
     17 O17        -5.7947    5.5072   50.4307 O.2     1  ZINC001002468398   -0.5100
     18 C18        -8.1292    5.1968   50.2772 C.3     1  ZINC001002468398   -0.2000
     19 H19        -8.6604    5.2382   51.2281 H       1  ZINC001002468398    0.1500
     20 C20        -8.9386    4.8321   49.0311 C.3     1  ZINC001002468398   -0.1500
     21 C21        -8.4572    6.2704   49.2376 C.3     1  ZINC001002468398    0.2300
     22 F22        -9.4162    7.2298   49.5799 F       1  ZINC001002468398   -0.1500
     23 F23        -7.4119    6.7245   48.4261 F       1  ZINC001002468398   -0.1400
     24 N24        -0.0865    2.4534   50.7186 N.2     1  ZINC001002468398   -0.4600
     25 C25         1.2108    2.4590   50.6461 C.2     1  ZINC001002468398    0.1700
     26 O26         1.5819    2.3639   49.3615 O.3     1  ZINC001002468398   -0.2000
     27 H27         1.3022    4.1322   46.7825 H       1  ZINC001002468398    0.0600
     28 H28         2.4678    2.7880   46.8350 H       1  ZINC001002468398    0.0600
     29 H29         1.4407    3.0199   45.3998 H       1  ZINC001002468398    0.0700
     30 H30        -0.5705    2.5072   46.7565 H       1  ZINC001002468398    0.1200
     31 H31         0.5951    1.1630   46.8090 H       1  ZINC001002468398    0.0900
     32 H32        -1.6357    4.9269   49.8920 H       1  ZINC001002468398    0.0700
     33 H33        -3.1952    4.9456   50.7498 H       1  ZINC001002468398    0.0700
     34 H34        -1.8875    3.8728   51.3041 H       1  ZINC001002468398    0.0700
     35 H35        -4.5962    4.2120   48.8617 H       1  ZINC001002468398    0.0900
     36 H36        -4.4170    2.5140   48.3587 H       1  ZINC001002468398    0.0900
     37 H37        -5.1880    0.8620   49.3355 H       1  ZINC001002468398    0.1000
     38 H38        -4.6045    0.7523   51.0287 H       1  ZINC001002468398    0.0800
     39 H39        -7.1981    0.1479   50.4527 H       1  ZINC001002468398    0.0900
     40 H40        -6.8140    1.0926   51.9306 H       1  ZINC001002468398    0.0800
     41 H41        -7.7085    2.1251   49.1833 H       1  ZINC001002468398    0.0800
     42 H42        -8.3405    2.5754   50.7967 H       1  ZINC001002468398    0.0800
     43 H43        -8.4409    4.2398   48.2632 H       1  ZINC001002468398    0.1300
     44 H44       -10.0024    4.6339   49.1621 H       1  ZINC001002468398    0.1400
     45 H45         1.8838    2.5254   51.4881 H       1  ZINC001002468398    0.2600
@<TRIPOS>BOND
     1     1     2    1
     2     1    27    1
     3     1    28    1
     4     1    29    1
     5     2     3    1
     6     2    30    1
     7     2    31    1
     8     3    26    1
     9     3     4    2
    10     4     5    1
    11     4    24    1
    12     5     6    2
    13     5     7   am
    14     7     8    1
    15     7     9    1
    16     8    32    1
    17     8    33    1
    18     8    34    1
    19     9    10    1
    20     9    35    1
    21     9    36    1
    22    10    11    1
    23    10    15    1
    24    10    12    1
    25    12    13    1
    26    12    37    1
    27    12    38    1
    28    13    14    1
    29    13    39    1
    30    13    40    1
    31    14    15    1
    32    14    41    1
    33    14    42    1
    34    15    16   am
    35    16    17    2
    36    16    18    1
    37    18    19    1
    38    18    21    1
    39    18    20    1
    40    20    21    1
    41    20    43    1
    42    20    44    1
    43    21    22    1
    44    21    23    1
    45    24    25    2
    46    25    26    1
    47    25    45    1
@<TRIPOS>SUBSTRUCTURE
     1 ZINC001002468398        1 TEMP              0 ****  ****    0 ROOT


##########                                Name:    ZINC001082278299
##########                DOCK_Rotatable_Bonds:                   9
##########                         Heavy_Atoms:                  25
##########                    Molecular_Weight:              346.47
##########                DOCK_Rotatable_Bonds:                   9
##########                       Formal_Charge:           0.0200001
##########                     HBond_Acceptors:                   5
##########                        HBond_Donors:                   1
##########                         Heavy_Atoms:                  25
##########                          Grid_Score:          -27.446949
##########                     Grid_vdw_energy:          -26.761097
##########                      Grid_es_energy:           -0.685852
##########           Internal_energy_repulsive:           85.327080

@<TRIPOS>MOLECULE
ZINC001082278299
 55 57 1 0 0
SMALL
USER_CHARGES


@<TRIPOS>ATOM
      1 C1         -7.8039    3.6192   49.7508 C.3     1  ZINC001082278299   -0.1300
      2 C2         -6.4005    3.0925   49.9062 C.2     1  ZINC001082278299    0.0000
      3 C3         -5.3666    3.9268   49.8457 C.2     1  ZINC001082278299   -0.2300
      4 C4         -3.9967    3.4128   49.9976 C.2     1  ZINC001082278299    0.5400
      5 O5         -3.5886    2.5410   49.2544 O.2     1  ZINC001082278299   -0.5300
      6 N6         -3.1939    3.9079   50.9603 N.am    1  ZINC001082278299   -0.7400
      7 C7         -1.8303    3.3947   51.1126 C.3     1  ZINC001082278299    0.1300
      8 C8         -1.2327    3.9152   52.4213 C.3     1  ZINC001082278299    0.1400
      9 H9         -1.7591    3.4704   53.2658 H       1  ZINC001082278299    0.0800
     10 C10        -1.3683    5.4401   52.4770 C.3     1  ZINC001082278299   -0.1300
     11 C11        -0.6468    5.9674   53.7195 C.3     1  ZINC001082278299   -0.1200
     12 C12         0.8406    5.6176   53.6346 C.3     1  ZINC001082278299   -0.1400
     13 C13         1.0013    4.0947   53.5921 C.3     1  ZINC001082278299    0.1100
     14 N14         0.1919    3.5616   52.4873 N.am    1  ZINC001082278299   -0.6100
     15 C15         0.7470    2.7679   51.5501 C.2     1  ZINC001082278299    0.5100
     16 O16         0.0683    2.3342   50.6434 O.2     1  ZINC001082278299   -0.5100
     17 C17         2.2110    2.4193   51.6289 C.3     1  ZINC001082278299   -0.1100
     18 C18         2.5145    1.3040   50.6619 C.2     1  ZINC001082278299   -0.0900
     19 C19         2.0135    0.1262   50.8889 C.2     1  ZINC001082278299   -0.1800
     20 C20         2.2631   -1.0527   49.9918 C.3     1  ZINC001082278299    0.0900
     21 O21         2.7854   -0.6135   48.7363 O.3     1  ZINC001082278299   -0.3800
     22 C22         3.8959    0.2819   48.8736 C.3     1  ZINC001082278299    0.0600
     23 C23         3.3805    1.5975   49.4680 C.3     1  ZINC001082278299   -0.1100
     24 C24        -6.1687    1.6204   50.1304 C.3     1  ZINC001082278299   -0.1200
     25 C25        -5.3682    1.2118   51.3686 C.3     1  ZINC001082278299   -0.1900
     26 C26        -6.8776    0.9664   51.3181 C.3     1  ZINC001082278299   -0.1500
     27 H27        -8.0843    3.6006   48.6976 H       1  ZINC001082278299    0.0800
     28 H28        -8.4916    2.9947   50.3209 H       1  ZINC001082278299    0.0800
     29 H29        -7.8508    4.6433   50.1213 H       1  ZINC001082278299    0.0700
     30 H30        -5.5328    4.9818   49.6851 H       1  ZINC001082278299    0.1300
     31 H31        -3.5191    4.6040   51.5523 H       1  ZINC001082278299    0.3900
     32 H32        -1.8521    2.3050   51.1313 H       1  ZINC001082278299    0.0900
     33 H33        -1.2196    3.7315   50.2750 H       1  ZINC001082278299    0.0800
     34 H34        -0.9222    5.8779   51.5841 H       1  ZINC001082278299    0.0700
     35 H35        -2.4232    5.7100   52.5270 H       1  ZINC001082278299    0.0800
     36 H36        -0.7627    7.0498   53.7747 H       1  ZINC001082278299    0.0700
     37 H37        -1.0771    5.5103   54.6106 H       1  ZINC001082278299    0.0700
     38 H38         1.2660    6.0537   52.7308 H       1  ZINC001082278299    0.0700
     39 H39         1.3579    6.0137   54.5085 H       1  ZINC001082278299    0.0800
     40 H40         2.0495    3.8421   53.4322 H       1  ZINC001082278299    0.0900
     41 H41         0.6592    3.6647   54.5334 H       1  ZINC001082278299    0.0700
     42 H42         2.8073    3.2949   51.3724 H       1  ZINC001082278299    0.1000
     43 H43         2.4540    2.0982   52.6418 H       1  ZINC001082278299    0.1000
     44 H44         1.3908   -0.0108   51.7606 H       1  ZINC001082278299    0.1100
     45 H45         2.9798   -1.7228   50.4669 H       1  ZINC001082278299    0.0600
     46 H46         1.3270   -1.5861   49.8272 H       1  ZINC001082278299    0.1000
     47 H47         4.6419   -0.1574   49.5358 H       1  ZINC001082278299    0.0600
     48 H48         4.3382    0.4707   47.8955 H       1  ZINC001082278299    0.1000
     49 H49         2.8023    2.1339   48.7156 H       1  ZINC001082278299    0.0800
     50 H50         4.2260    2.2104   49.7806 H       1  ZINC001082278299    0.0800
     51 H51        -6.0415    1.0218   49.2283 H       1  ZINC001082278299    0.1300
     52 H52        -4.7141    0.3443   51.2814 H       1  ZINC001082278299    0.1000
     53 H53        -5.0093    2.0078   52.0211 H       1  ZINC001082278299    0.1000
     54 H54        -7.5117    1.6010   51.9373 H       1  ZINC001082278299    0.0900
     55 H55        -7.2165   -0.0625   51.1976 H       1  ZINC001082278299    0.1000
@<TRIPOS>BOND
     1     1     2    1
     2     1    27    1
     3     1    28    1
     4     1    29    1
     5     2     3    2
     6     2    24    1
     7     3     4    1
     8     3    30    1
     9     4     5    2
    10     4     6   am
    11     6     7    1
    12     6    31    1
    13     7     8    1
    14     7    32    1
    15     7    33    1
    16     8     9    1
    17     8    14    1
    18     8    10    1
    19    10    11    1
    20    10    34    1
    21    10    35    1
    22    11    12    1
    23    11    36    1
    24    11    37    1
    25    12    13    1
    26    12    38    1
    27    12    39    1
    28    13    14    1
    29    13    40    1
    30    13    41    1
    31    14    15   am
    32    15    16    2
    33    15    17    1
    34    17    18    1
    35    17    42    1
    36    17    43    1
    37    18    23    1
    38    18    19    2
    39    19    20    1
    40    19    44    1
    41    20    21    1
    42    20    45    1
    43    20    46    1
    44    21    22    1
    45    22    23    1
    46    22    47    1
    47    22    48    1
    48    23    49    1
    49    23    50    1
    50    24    26    1
    51    24    25    1
    52    24    51    1
    53    25    26    1
    54    25    52    1
    55    25    53    1
    56    26    54    1
    57    26    55    1
@<TRIPOS>SUBSTRUCTURE
     1 ZINC001082278299        1 TEMP              0 ****  ****    0 ROOT


##########                                Name:    ZINC000176150038
##########                DOCK_Rotatable_Bonds:                   4
##########                         Heavy_Atoms:                  23
##########                    Molecular_Weight:             333.712
##########                DOCK_Rotatable_Bonds:                   4
##########                       Formal_Charge:        -2.23517e-07
##########                     HBond_Acceptors:                  10
##########                        HBond_Donors:                   1
##########                         Heavy_Atoms:                  23
##########                          Grid_Score:          -27.316288
##########                     Grid_vdw_energy:          -25.864922
##########                      Grid_es_energy:           -1.451367
##########           Internal_energy_repulsive:            6.901333

@<TRIPOS>MOLECULE
ZINC000176150038
 32 34 1 0 0
SMALL
USER_CHARGES


@<TRIPOS>ATOM
      1 C1         -6.3605    2.3051   55.9645 C.3     1  ZINC000176150038   -0.0900
      2 C2         -7.6508    2.9268   55.4956 C.2     1  ZINC000176150038    0.2600
      3 N3         -8.4054    3.7514   56.1738 N.2     1  ZINC000176150038   -0.3300
      4 N4         -9.4334    4.0950   55.4851 N.2     1  ZINC000176150038   -0.0300
      5 N5         -9.4084    3.5206   54.3309 N.2     1  ZINC000176150038   -0.0700
      6 N6         -8.2395    2.7401   54.2945 N.pl3   1  ZINC000176150038   -0.3300
      7 C7         -7.7859    1.9339   53.2395 C.ar    1  ZINC000176150038    0.1400
      8 C8         -8.5847    0.9055   52.7586 C.ar    1  ZINC000176150038   -0.1000
      9 C9         -8.1398    0.1105   51.7192 C.ar    1  ZINC000176150038   -0.1100
     10 C10        -6.8977    0.3369   51.1551 C.ar    1  ZINC000176150038    0.1000
     11 F11        -6.4655   -0.4414   50.1388 F       1  ZINC000176150038   -0.1200
     12 C12        -6.0932    1.3665   51.6335 C.ar    1  ZINC000176150038    0.1300
     13 N13        -4.8361    1.5962   51.0631 N.am    1  ZINC000176150038   -0.6500
     14 C14        -4.7425    2.1724   49.8484 C.2     1  ZINC000176150038    0.5700
     15 O15        -5.7495    2.4925   49.2485 O.2     1  ZINC000176150038   -0.4800
     16 C16        -3.4101    2.4159   49.2438 C.ar    1  ZINC000176150038    0.1400
     17 N17        -3.1282    1.9657   48.0231 N.ar    1  ZINC000176150038   -0.4800
     18 C18        -1.9479    2.1800   47.4832 C.ar    1  ZINC000176150038    0.3000
     19 N19        -0.9999    2.8425   48.1173 N.ar    1  ZINC000176150038   -0.4800
     20 C20        -1.1994    3.3225   49.3326 C.ar    1  ZINC000176150038    0.1700
     21 C21        -2.4318    3.1265   49.9432 C.ar    1  ZINC000176150038   -0.1000
     22 Cl22       -2.7433    3.7378   51.5379 Cl      1  ZINC000176150038    0.0100
     23 C23        -6.5411    2.1680   52.6730 C.ar    1  ZINC000176150038   -0.0800
     24 H24        -5.5264    2.9540   55.6971 H       1  ZINC000176150038    0.1100
     25 H25        -6.3903    2.1790   57.0467 H       1  ZINC000176150038    0.1100
     26 H26        -6.2317    1.3330   55.4887 H       1  ZINC000176150038    0.0900
     27 H27        -9.5551    0.7261   53.1975 H       1  ZINC000176150038    0.1500
     28 H28        -8.7632   -0.6892   51.3472 H       1  ZINC000176150038    0.1600
     29 H29        -4.0323    1.3407   51.5421 H       1  ZINC000176150038    0.4300
     30 H30        -1.7491    1.8019   46.4913 H       1  ZINC000176150038    0.2200
     31 H31        -0.4159    3.8635   49.8425 H       1  ZINC000176150038    0.1900
     32 H32        -5.9188    2.9678   53.0463 H       1  ZINC000176150038    0.1700
@<TRIPOS>BOND
     1     1     2    1
     2     1    24    1
     3     1    25    1
     4     1    26    1
     5     2     6    1
     6     2     3    2
     7     3     4    1
     8     4     5    2
     9     5     6    1
    10     6     7    1
    11     7    23   ar
    12     7     8   ar
    13     8     9   ar
    14     8    27    1
    15     9    10   ar
    16     9    28    1
    17    10    11    1
    18    10    12   ar
    19    12    13    1
    20    12    23   ar
    21    13    14   am
    22    13    29    1
    23    14    15    2
    24    14    16    1
    25    16    21   ar
    26    16    17   ar
    27    17    18   ar
    28    18    19   ar
    29    18    30    1
    30    19    20   ar
    31    20    21   ar
    32    20    31    1
    33    21    22    1
    34    23    32    1
@<TRIPOS>SUBSTRUCTURE
     1 ZINC000176150038        1 TEMP              0 ****  ****    0 ROOT


##########                                Name:    ZINC001110536231
##########                DOCK_Rotatable_Bonds:                   8
##########                         Heavy_Atoms:                  24
##########                    Molecular_Weight:             329.442
##########                DOCK_Rotatable_Bonds:                   8
##########                       Formal_Charge:          -0.0400001
##########                     HBond_Acceptors:                   5
##########                        HBond_Donors:                   1
##########                         Heavy_Atoms:                  24
##########                          Grid_Score:          -27.227890
##########                     Grid_vdw_energy:          -26.800026
##########                      Grid_es_energy:           -0.427863
##########           Internal_energy_repulsive:           28.986269

@<TRIPOS>MOLECULE
ZINC001110536231
 51 53 1 0 0
SMALL
USER_CHARGES


@<TRIPOS>ATOM
      1 C1          2.8255    0.0607   46.3673 C.3     1  ZINC001110536231   -0.1300
      2 C2          1.5815    0.9498   46.4214 C.3     1  ZINC001110536231   -0.1000
      3 C3          1.4635    1.5658   47.7917 C.2     1  ZINC001110536231   -0.0200
      4 C4          2.0012    0.8350   48.9951 C.3     1  ZINC001110536231   -0.1300
      5 C5          0.8850    2.7542   47.9391 C.2     1  ZINC001110536231   -0.2400
      6 C6          0.7700    3.3553   49.2768 C.2     1  ZINC001110536231    0.5400
      7 O7          1.7700    3.5731   49.9336 O.2     1  ZINC001110536231   -0.5300
      8 N8         -0.4438    3.6646   49.7744 N.am    1  ZINC001110536231   -0.7300
      9 C9         -0.5582    4.2648   51.1059 C.3     1  ZINC001110536231    0.1100
     10 H10         0.3481    4.8162   51.3562 H       1  ZINC001110536231    0.1000
     11 C11        -0.8469    3.1784   52.1707 C.3     1  ZINC001110536231   -0.1600
     12 C12        -2.2326    3.5949   52.7497 C.3     1  ZINC001110536231    0.0500
     13 H13        -2.7929    2.8025   53.2459 H       1  ZINC001110536231    0.1200
     14 C14        -1.9458    4.8594   53.6145 C.3     1  ZINC001110536231   -0.1200
     15 C15        -1.6480    5.9568   52.5635 C.3     1  ZINC001110536231   -0.1100
     16 C16        -1.8056    5.1960   51.1825 C.3     1  ZINC001110536231    0.0400
     17 H17        -1.9928    5.8290   50.3152 H       1  ZINC001110536231    0.1200
     18 N18        -2.8842    4.1978   51.5324 N.3     1  ZINC001110536231   -0.4900
     19 C19        -3.0512    3.2061   50.4615 C.3     1  ZINC001110536231    0.0600
     20 C20        -4.5132    2.8748   50.3073 C.ar    1  ZINC001110536231    0.0100
     21 C21        -5.4365    3.8639   49.9986 C.ar    1  ZINC001110536231   -0.2100
     22 C22        -6.7687    3.5263   49.8640 C.ar    1  ZINC001110536231    0.1400
     23 N23        -7.1700    2.2799   50.0250 N.ar    1  ZINC001110536231   -0.5400
     24 C24        -6.3204    1.3098   50.3196 C.ar    1  ZINC001110536231    0.3200
     25 O25        -6.7766    0.0416   50.4761 O.3     1  ZINC001110536231   -0.3100
     26 C26        -7.5951   -0.2171   51.6186 C.3     1  ZINC001110536231    0.0400
     27 C27        -4.9651    1.5759   50.4648 C.ar    1  ZINC001110536231   -0.1700
     28 H28         2.9108   -0.3848   45.3762 H       1  ZINC001110536231    0.0500
     29 H29         3.7110    0.6620   46.5728 H       1  ZINC001110536231    0.0700
     30 H30         2.7408   -0.7285   47.1143 H       1  ZINC001110536231    0.0400
     31 H31         1.6662    1.7390   45.6744 H       1  ZINC001110536231    0.0900
     32 H32         0.6959    0.3484   46.2159 H       1  ZINC001110536231    0.0600
     33 H33         3.0413    1.1179   49.1572 H       1  ZINC001110536231    0.0800
     34 H34         1.4119    1.0985   49.8734 H       1  ZINC001110536231    0.0700
     35 H35         1.9393   -0.2399   48.8251 H       1  ZINC001110536231    0.0700
     36 H36         0.4996    3.2778   47.0767 H       1  ZINC001110536231    0.1200
     37 H37        -1.2415    3.4898   49.2510 H       1  ZINC001110536231    0.4000
     38 H38        -0.9049    2.1933   51.7078 H       1  ZINC001110536231    0.0700
     39 H39        -0.0852    3.1931   52.9502 H       1  ZINC001110536231    0.0800
     40 H40        -2.8204    5.1243   54.2087 H       1  ZINC001110536231    0.0700
     41 H41        -1.0796    4.6972   54.2559 H       1  ZINC001110536231    0.0700
     42 H42        -2.3749    6.7656   52.6369 H       1  ZINC001110536231    0.0800
     43 H43        -0.6342    6.3385   52.6841 H       1  ZINC001110536231    0.0700
     44 H44        -2.6705    3.6146   49.5254 H       1  ZINC001110536231    0.0900
     45 H45        -2.4985    2.3014   50.7146 H       1  ZINC001110536231    0.0700
     46 H46        -5.1165    4.8868   49.8654 H       1  ZINC001110536231    0.1300
     47 H47        -7.4912    4.2923   49.6240 H       1  ZINC001110536231    0.1600
     48 H48        -7.8911   -1.2661   51.6234 H       1  ZINC001110536231    0.1000
     49 H49        -7.0337    0.0062   52.5258 H       1  ZINC001110536231    0.0600
     50 H50        -8.4848    0.4113   51.5780 H       1  ZINC001110536231    0.0600
     51 H51        -4.2741    0.7814   50.7050 H       1  ZINC001110536231    0.1400
@<TRIPOS>BOND
     1     1     2    1
     2     1    28    1
     3     1    29    1
     4     1    30    1
     5     2     3    1
     6     2    31    1
     7     2    32    1
     8     3     4    1
     9     3     5    2
    10     4    33    1
    11     4    34    1
    12     4    35    1
    13     5     6    1
    14     5    36    1
    15     6     7    2
    16     6     8   am
    17     8     9    1
    18     8    37    1
    19     9    10    1
    20     9    16    1
    21     9    11    1
    22    11    12    1
    23    11    38    1
    24    11    39    1
    25    12    13    1
    26    12    18    1
    27    12    14    1
    28    14    15    1
    29    14    40    1
    30    14    41    1
    31    15    16    1
    32    15    42    1
    33    15    43    1
    34    16    17    1
    35    16    18    1
    36    18    19    1
    37    19    20    1
    38    19    44    1
    39    19    45    1
    40    20    27   ar
    41    20    21   ar
    42    21    22   ar
    43    21    46    1
    44    22    23   ar
    45    22    47    1
    46    23    24   ar
    47    24    25    1
    48    24    27   ar
    49    25    26    1
    50    26    48    1
    51    26    49    1
    52    26    50    1
    53    27    51    1
@<TRIPOS>SUBSTRUCTURE
     1 ZINC001110536231        1 TEMP              0 ****  ****    0 ROOT


##########                                Name:    ZINC000422507946
##########                DOCK_Rotatable_Bonds:                   7
##########                         Heavy_Atoms:                  25
##########                    Molecular_Weight:             364.484
##########                DOCK_Rotatable_Bonds:                   7
##########                       Formal_Charge:          0.00999952
##########                     HBond_Acceptors:                   6
##########                        HBond_Donors:                   1
##########                         Heavy_Atoms:                  25
##########                          Grid_Score:          -27.223314
##########                     Grid_vdw_energy:          -27.173307
##########                      Grid_es_energy:           -0.050006
##########           Internal_energy_repulsive:           34.302876

@<TRIPOS>MOLECULE
ZINC000422507946
 50 52 1 0 0
SMALL
USER_CHARGES


@<TRIPOS>ATOM
      1 C1         -9.9252    1.9443   55.8612 C.3     1  ZINC000422507946   -0.1400
      2 C2         -9.3231    0.7300   55.1517 C.3     1  ZINC000422507946   -0.0400
      3 H3         -8.8357    0.0730   55.8721 H       1  ZINC000422507946    0.1100
      4 C4         -8.3190    1.1818   54.0709 C.3     1  ZINC000422507946   -0.1400
      5 C5         -8.3669    0.1870   52.8982 C.3     1  ZINC000422507946    0.1400
      6 H6         -7.9016   -0.7546   53.1895 H       1  ZINC000422507946    0.1100
      7 N7         -7.6738    0.7491   51.7364 N.am    1  ZINC000422507946   -0.6900
      8 C8         -6.3271    0.7982   51.7138 C.2     1  ZINC000422507946    0.5100
      9 O9         -5.6887    0.3754   52.6552 O.2     1  ZINC000422507946   -0.5000
     10 C10        -5.6201    1.3733   50.5294 C.2     1  ZINC000422507946    0.5100
     11 O11        -4.9629    0.6535   49.8066 O.2     1  ZINC000422507946   -0.5200
     12 N12        -5.7125    2.6915   50.2641 N.am    1  ZINC000422507946   -0.5700
     13 C13        -5.0195    3.2553   49.1030 C.3     1  ZINC000422507946    0.1400
     14 C14        -3.5606    2.8817   49.1585 C.ar    1  ZINC000422507946   -0.0800
     15 C15        -2.8456    3.0609   50.3278 C.ar    1  ZINC000422507946   -0.1100
     16 C16        -1.5070    2.7186   50.3803 C.ar    1  ZINC000422507946   -0.0900
     17 C17        -0.8825    2.1967   49.2636 C.ar    1  ZINC000422507946   -0.1500
     18 C18        -1.5980    2.0163   48.0917 C.ar    1  ZINC000422507946    0.1000
     19 F19        -0.9884    1.5062   46.9993 F       1  ZINC000422507946   -0.1400
     20 C20        -2.9395    2.3545   48.0420 C.ar    1  ZINC000422507946   -0.1500
     21 C21        -6.5060    3.5605   51.1367 C.3     1  ZINC000422507946    0.1400
     22 C22        -5.9254    4.9898   51.1283 C.3     1  ZINC000422507946   -0.1200
     23 C23        -6.7712    5.7371   50.0676 C.3     1  ZINC000422507946   -0.1300
     24 C24        -8.1903    5.1587   50.2925 C.3     1  ZINC000422507946   -0.1200
     25 C25        -7.9460    3.6680   50.6053 C.3     1  ZINC000422507946   -0.1600
     26 C26        -9.8640   -0.0433   52.5630 C.3     1  ZINC000422507946   -0.0900
     27 S27       -10.6192   -0.1799   54.2327 S.3     1  ZINC000422507946   -0.2700
     28 H28       -10.6526    1.6093   56.6008 H       1  ZINC000422507946    0.0700
     29 H29        -9.1333    2.5044   56.3584 H       1  ZINC000422507946    0.0700
     30 H30       -10.4190    2.5845   55.1301 H       1  ZINC000422507946    0.0700
     31 H31        -8.5861    2.1776   53.7169 H       1  ZINC000422507946    0.0900
     32 H32        -7.3138    1.2033   54.4915 H       1  ZINC000422507946    0.0900
     33 H33        -8.1841    1.0860   50.9834 H       1  ZINC000422507946    0.4100
     34 H34        -5.4613    2.8593   48.1886 H       1  ZINC000422507946    0.1100
     35 H35        -5.1172    4.3408   49.1133 H       1  ZINC000422507946    0.1000
     36 H36        -3.3328    3.4691   51.2010 H       1  ZINC000422507946    0.1400
     37 H37        -0.9493    2.8594   51.2943 H       1  ZINC000422507946    0.1300
     38 H38         0.1632    1.9301   49.3047 H       1  ZINC000422507946    0.1400
     39 H39        -3.4985    2.2139   47.1287 H       1  ZINC000422507946    0.1400
     40 H40        -6.5113    3.1648   52.1523 H       1  ZINC000422507946    0.1100
     41 H41        -6.0430    5.4551   52.1070 H       1  ZINC000422507946    0.0800
     42 H42        -4.8753    4.9733   50.8365 H       1  ZINC000422507946    0.0600
     43 H43        -6.7586    6.8116   50.2505 H       1  ZINC000422507946    0.0700
     44 H44        -6.4169    5.5112   49.0619 H       1  ZINC000422507946    0.0600
     45 H45        -8.6737    5.6512   51.1362 H       1  ZINC000422507946    0.0700
     46 H46        -8.7931    5.2655   49.3906 H       1  ZINC000422507946    0.0700
     47 H47        -8.0545    3.0734   49.6981 H       1  ZINC000422507946    0.0900
     48 H48        -8.6503    3.3251   51.3632 H       1  ZINC000422507946    0.0800
     49 H49       -10.2750    0.8069   52.0185 H       1  ZINC000422507946    0.1000
     50 H50        -9.9981   -0.9673   52.0005 H       1  ZINC000422507946    0.1100
@<TRIPOS>BOND
     1     1     2    1
     2     1    28    1
     3     1    29    1
     4     1    30    1
     5     2     3    1
     6     2    27    1
     7     2     4    1
     8     4     5    1
     9     4    31    1
    10     4    32    1
    11     5     6    1
    12     5     7    1
    13     5    26    1
    14     7     8   am
    15     7    33    1
    16     8     9    2
    17     8    10    1
    18    10    11    2
    19    10    12   am
    20    12    13    1
    21    12    21    1
    22    13    14    1
    23    13    34    1
    24    13    35    1
    25    14    20   ar
    26    14    15   ar
    27    15    16   ar
    28    15    36    1
    29    16    17   ar
    30    16    37    1
    31    17    18   ar
    32    17    38    1
    33    18    19    1
    34    18    20   ar
    35    20    39    1
    36    21    25    1
    37    21    22    1
    38    21    40    1
    39    22    23    1
    40    22    41    1
    41    22    42    1
    42    23    24    1
    43    23    43    1
    44    23    44    1
    45    24    25    1
    46    24    45    1
    47    24    46    1
    48    25    47    1
    49    25    48    1
    50    26    27    1
    51    26    49    1
    52    26    50    1
@<TRIPOS>SUBSTRUCTURE
     1 ZINC000422507946        1 TEMP              0 ****  ****    0 ROOT


##########                                Name:    ZINC000469391664
##########                DOCK_Rotatable_Bonds:                   6
##########                         Heavy_Atoms:                  29
##########                    Molecular_Weight:             408.524
##########                DOCK_Rotatable_Bonds:                   6
##########                       Formal_Charge:         -0.00999999
##########                     HBond_Acceptors:                   7
##########                        HBond_Donors:                   0
##########                         Heavy_Atoms:                  29
##########                          Grid_Score:          -27.181952
##########                     Grid_vdw_energy:          -27.305145
##########                      Grid_es_energy:            0.123194
##########           Internal_energy_repulsive:           36.817329

@<TRIPOS>MOLECULE
ZINC000469391664
 53 56 1 0 0
SMALL
USER_CHARGES


@<TRIPOS>ATOM
      1 C1         -3.0156    4.9804   51.2631 C.3     1  ZINC000469391664   -0.1500
      2 C2         -4.3277    4.1943   51.2985 C.3     1  ZINC000469391664   -0.1000
      3 H3         -4.9817    4.5430   50.4992 H       1  ZINC000469391664    0.0800
      4 C4         -5.0143    4.4088   52.6493 C.3     1  ZINC000469391664   -0.1300
      5 C5         -6.3439    3.6483   52.6682 C.3     1  ZINC000469391664    0.1100
      6 N6         -6.0878    2.2396   52.3385 N.am    1  ZINC000469391664   -0.6100
      7 C7         -6.5184    1.2547   53.1516 C.2     1  ZINC000469391664    0.5600
      8 O8         -6.3000    0.0927   52.8676 O.2     1  ZINC000469391664   -0.5000
      9 C9         -7.2545    1.5865   54.3860 C.ar    1  ZINC000469391664   -0.1100
     10 C10        -6.6098    2.2517   55.4311 C.ar    1  ZINC000469391664   -0.0900
     11 C11        -7.3033    2.5593   56.5819 C.ar    1  ZINC000469391664   -0.1000
     12 C12        -8.6383    2.2115   56.7084 C.ar    1  ZINC000469391664   -0.0900
     13 C13        -9.2891    1.5533   55.6842 C.ar    1  ZINC000469391664   -0.1000
     14 C14        -8.6084    1.2407   54.5150 C.ar    1  ZINC000469391664    0.1500
     15 N15        -9.2624    0.5772   53.4811 N.am    1  ZINC000469391664   -0.5800
     16 C16        -8.9215   -0.8136   53.1720 C.3     1  ZINC000469391664    0.0900
     17 C17       -10.2093    1.2143   52.7642 C.2     1  ZINC000469391664    0.6100
     18 O18       -10.7813    0.6341   51.8600 O.2     1  ZINC000469391664   -0.5200
     19 C19       -10.5502    2.6054   53.0734 C.2     1  ZINC000469391664   -0.2600
     20 C20       -11.7962    3.0626   53.4002 C.2     1  ZINC000469391664   -0.0500
     21 C21       -11.8325    4.4152   53.6427 C.2     1  ZINC000469391664   -0.1500
     22 C22       -10.6587    5.0458   53.5194 C.2     1  ZINC000469391664   -0.2600
     23 S23        -9.4207    3.9528   53.0908 S.3     1  ZINC000469391664    0.2300
     24 C24        -5.3536    1.9249   51.1054 C.3     1  ZINC000469391664    0.1000
     25 C25        -4.0350    2.7047   51.1043 C.3     1  ZINC000469391664    0.1300
     26 H26        -3.4014    2.3492   51.9169 H       1  ZINC000469391664    0.1000
     27 N27        -3.3490    2.5036   49.8255 N.pl3   1  ZINC000469391664   -0.4500
     28 C28        -1.9993    2.3720   49.6397 C.2     1  ZINC000469391664   -0.0500
     29 C29        -1.8023    2.2052   48.3180 C.2     1  ZINC000469391664   -0.0300
     30 N30        -2.9991    2.2343   47.7132 N.2     1  ZINC000469391664   -0.4900
     31 C31        -3.9307    2.4075   48.6106 C.2     1  ZINC000469391664    0.1800
     32 H32        -2.5267    4.8282   50.3008 H       1  ZINC000469391664    0.0600
     33 H33        -3.2240    6.0414   51.4008 H       1  ZINC000469391664    0.0600
     34 H34        -2.3615    4.6318   52.0622 H       1  ZINC000469391664    0.0600
     35 H35        -4.3714    4.0373   53.4472 H       1  ZINC000469391664    0.0700
     36 H36        -5.2014    5.4723   52.7975 H       1  ZINC000469391664    0.0900
     37 H37        -6.7896    3.7161   53.6606 H       1  ZINC000469391664    0.1000
     38 H38        -7.0217    4.0787   51.9309 H       1  ZINC000469391664    0.0800
     39 H39        -5.5691    2.5244   55.3378 H       1  ZINC000469391664    0.1400
     40 H40        -6.8034    3.0738   57.3890 H       1  ZINC000469391664    0.1400
     41 H41        -9.1732    2.4565   57.6141 H       1  ZINC000469391664    0.1400
     42 H42       -10.3298    1.2852   55.7906 H       1  ZINC000469391664    0.1400
     43 H43        -9.6129   -1.4803   53.6873 H       1  ZINC000469391664    0.0600
     44 H44        -8.9944   -0.9752   52.0965 H       1  ZINC000469391664    0.0900
     45 H45        -7.9035   -1.0202   53.5022 H       1  ZINC000469391664    0.0700
     46 H46       -12.6656    2.4248   53.4615 H       1  ZINC000469391664    0.1500
     47 H47       -12.7421    4.9313   53.9127 H       1  ZINC000469391664    0.1400
     48 H48       -10.5136    6.1048   53.6745 H       1  ZINC000469391664    0.1600
     49 H49        -5.1457    0.8557   51.0666 H       1  ZINC000469391664    0.1000
     50 H50        -5.9505    2.2148   50.2406 H       1  ZINC000469391664    0.0800
     51 H51        -1.2385    2.3975   50.4059 H       1  ZINC000469391664    0.1700
     52 H52        -0.8479    2.0717   47.8305 H       1  ZINC000469391664    0.1700
     53 H53        -4.9907    2.4705   48.4134 H       1  ZINC000469391664    0.2000
@<TRIPOS>BOND
     1     1     2    1
     2     1    32    1
     3     1    33    1
     4     1    34    1
     5     2     3    1
     6     2    25    1
     7     2     4    1
     8     4     5    1
     9     4    35    1
    10     4    36    1
    11     5     6    1
    12     5    37    1
    13     5    38    1
    14     6     7   am
    15     6    24    1
    16     7     8    2
    17     7     9    1
    18     9    14   ar
    19     9    10   ar
    20    10    11   ar
    21    10    39    1
    22    11    12   ar
    23    11    40    1
    24    12    13   ar
    25    12    41    1
    26    13    14   ar
    27    13    42    1
    28    14    15    1
    29    15    16    1
    30    15    17   am
    31    16    43    1
    32    16    44    1
    33    16    45    1
    34    17    18    2
    35    17    19    1
    36    19    23    1
    37    19    20    2
    38    20    21    1
    39    20    46    1
    40    21    22    2
    41    21    47    1
    42    22    23    1
    43    22    48    1
    44    24    25    1
    45    24    49    1
    46    24    50    1
    47    25    26    1
    48    25    27    1
    49    27    31    1
    50    27    28    1
    51    28    29    2
    52    28    51    1
    53    29    30    1
    54    29    52    1
    55    30    31    2
    56    31    53    1
@<TRIPOS>SUBSTRUCTURE
     1 ZINC000469391664        1 TEMP              0 ****  ****    0 ROOT


##########                                Name:    ZINC000836820897
##########                DOCK_Rotatable_Bonds:                   5
##########                         Heavy_Atoms:                  22
##########                    Molecular_Weight:             330.355
##########                DOCK_Rotatable_Bonds:                   5
##########                       Formal_Charge:          -0.0200003
##########                     HBond_Acceptors:                   8
##########                        HBond_Donors:                   1
##########                         Heavy_Atoms:                  22
##########                          Grid_Score:          -27.147886
##########                     Grid_vdw_energy:          -26.894491
##########                      Grid_es_energy:           -0.253395
##########           Internal_energy_repulsive:            8.045485

@<TRIPOS>MOLECULE
ZINC000836820897
 38 40 1 0 0
SMALL
USER_CHARGES


@<TRIPOS>ATOM
      1 O1         -5.2616    4.3895   49.7180 O.2     1  ZINC000836820897   -0.5200
      2 C2         -4.7957    3.2700   49.8054 C.2     1  ZINC000836820897    0.5800
      3 C3         -3.3728    3.0350   49.4849 C.ar    1  ZINC000836820897   -0.1600
      4 C4         -3.0216    2.3268   48.3340 C.ar    1  ZINC000836820897   -0.0100
      5 C5         -1.6922    2.1108   48.0395 C.ar    1  ZINC000836820897   -0.1700
      6 C6         -0.7050    2.5953   48.8836 C.ar    1  ZINC000836820897    0.2200
      7 F7          0.5963    2.3809   48.5903 F       1  ZINC000836820897   -0.1100
      8 C8         -1.0483    3.2998   50.0277 C.ar    1  ZINC000836820897   -0.7200
      9 S9          0.2128    3.9131   51.0944 S.o2    1  ZINC000836820897    2.7000
     10 O10         0.9967    2.7909   51.4757 O.2     1  ZINC000836820897   -0.9400
     11 O11         0.7566    5.0598   50.4552 O.2     1  ZINC000836820897   -0.9400
     12 N12        -0.5304    4.4539   52.4719 N.am    1  ZINC000836820897   -1.0800
     13 C13        -1.3172    3.5288   53.2912 C.3     1  ZINC000836820897    0.0700
     14 C14        -1.4112    3.8180   54.7907 C.3     1  ZINC000836820897   -0.1800
     15 C15        -2.6249    4.0517   53.8891 C.3     1  ZINC000836820897   -0.1900
     16 C16        -2.3741    3.5256   50.3291 C.ar    1  ZINC000836820897    0.0600
     17 N17        -5.5758    2.2442   50.2000 N.am    1  ZINC000836820897   -0.6200
     18 C18        -5.1408    0.8489   50.3595 C.3     1  ZINC000836820897    0.0900
     19 C19        -6.3607    0.0422   50.8522 C.3     1  ZINC000836820897   -0.1600
     20 C20        -7.2660    1.1323   51.4843 C.3     1  ZINC000836820897    0.0800
     21 H21        -6.9522    1.3582   52.5034 H       1  ZINC000836820897    0.1100
     22 F22        -8.6109    0.7490   51.4498 F       1  ZINC000836820897   -0.1900
     23 C23        -7.0051    2.3367   50.5491 C.3     1  ZINC000836820897    0.0800
     24 H24        -3.7899    1.9486   47.6760 H       1  ZINC000836820897    0.1500
     25 H25        -1.4194    1.5628   47.1497 H       1  ZINC000836820897    0.1600
     26 H26        -0.4449    5.3834   52.7363 H       1  ZINC000836820897    0.4200
     27 H27        -1.2880    2.4845   52.9807 H       1  ZINC000836820897    0.1400
     28 H28        -1.4436    2.9638   55.4670 H       1  ZINC000836820897    0.1100
     29 H29        -0.8876    4.6966   55.1676 H       1  ZINC000836820897    0.1000
     30 H30        -2.8999    5.0840   53.6727 H       1  ZINC000836820897    0.1000
     31 H31        -3.4559    3.3512   53.9720 H       1  ZINC000836820897    0.1000
     32 H32        -2.6404    4.0746   51.2202 H       1  ZINC000836820897    0.1600
     33 H33        -4.7983    0.4556   49.4024 H       1  ZINC000836820897    0.0800
     34 H34        -4.3377    0.7927   51.0945 H       1  ZINC000836820897    0.0800
     35 H35        -6.8660   -0.4418   50.0166 H       1  ZINC000836820897    0.0900
     36 H36        -6.0611   -0.6916   51.6005 H       1  ZINC000836820897    0.1000
     37 H37        -7.2124    3.2722   51.0686 H       1  ZINC000836820897    0.1000
     38 H38        -7.6157    2.2578   49.6497 H       1  ZINC000836820897    0.0900
@<TRIPOS>BOND
     1     1     2    2
     2     2     3    1
     3     2    17   am
     4     3    16   ar
     5     3     4   ar
     6     4     5   ar
     7     4    24    1
     8     5     6   ar
     9     5    25    1
    10     6     7    1
    11     6     8   ar
    12     8     9    1
    13     8    16   ar
    14     9    10    2
    15     9    11    2
    16     9    12   am
    17    12    13    1
    18    12    26    1
    19    13    15    1
    20    13    14    1
    21    13    27    1
    22    14    15    1
    23    14    28    1
    24    14    29    1
    25    15    30    1
    26    15    31    1
    27    16    32    1
    28    17    23    1
    29    17    18    1
    30    18    19    1
    31    18    33    1
    32    18    34    1
    33    19    20    1
    34    19    35    1
    35    19    36    1
    36    20    21    1
    37    20    22    1
    38    20    23    1
    39    23    37    1
    40    23    38    1
@<TRIPOS>SUBSTRUCTURE
     1 ZINC000836820897        1 TEMP              0 ****  ****    0 ROOT


##########                                Name:    ZINC000928803822
##########                DOCK_Rotatable_Bonds:                   7
##########                         Heavy_Atoms:                  21
##########                    Molecular_Weight:             364.165
##########                DOCK_Rotatable_Bonds:                   7
##########                       Formal_Charge:         -0.00999978
##########                     HBond_Acceptors:                   7
##########                        HBond_Donors:                   1
##########                         Heavy_Atoms:                  21
##########                          Grid_Score:          -27.146917
##########                     Grid_vdw_energy:          -24.393932
##########                      Grid_es_energy:           -2.752985
##########           Internal_energy_repulsive:            7.728987

@<TRIPOS>MOLECULE
ZINC000928803822
 34 34 1 0 0
SMALL
USER_CHARGES


@<TRIPOS>ATOM
      1 C1         -6.3222    2.5174   49.7323 C.3     1  ZINC000928803822    0.0900
      2 N2         -5.2158    1.5974   50.0079 N.pl3   1  ZINC000928803822   -0.6300
      3 C3         -5.4796    0.1676   50.1875 C.3     1  ZINC000928803822    0.0900
      4 C4         -3.9093    2.0836   50.0993 C.ar    1  ZINC000928803822    0.2200
      5 C5         -3.0432    1.9552   49.0201 C.ar    1  ZINC000928803822   -0.1500
      6 C6         -1.7486    2.4350   49.1057 C.ar    1  ZINC000928803822   -0.0500
      7 Br7        -0.5777    2.2562   47.6317 Br      1  ZINC000928803822   -0.0400
      8 C8         -1.3088    3.0445   50.2640 C.ar    1  ZINC000928803822   -0.1200
      9 C9         -2.1716    3.1781   51.3533 C.ar    1  ZINC000928803822   -0.0800
     10 C10        -1.7032    3.8303   52.5949 C.2     1  ZINC000928803822    0.5700
     11 O11        -0.9700    4.7980   52.5339 O.2     1  ZINC000928803822   -0.5100
     12 N12        -2.0891    3.3520   53.7944 N.am    1  ZINC000928803822   -0.7200
     13 C13        -1.6237    3.9971   55.0245 C.3     1  ZINC000928803822    0.1100
     14 H14        -0.6610    4.4749   54.8424 H       1  ZINC000928803822    0.1400
     15 C15        -1.4710    2.9457   56.1255 C.3     1  ZINC000928803822   -0.0300
     16 C16        -0.5332    3.4380   57.1476 C.1     1  ZINC000928803822    0.2000
     17 N17         0.1905    3.8180   57.9365 N.1     1  ZINC000928803822   -0.4000
     18 C18        -2.6413    5.0516   55.4640 C.3     1  ZINC000928803822    0.4400
     19 F19        -2.7510    6.0346   54.4746 F       1  ZINC000928803822   -0.1800
     20 F20        -3.8869    4.4451   55.6588 F       1  ZINC000928803822   -0.1700
     21 F21        -2.2166    5.6395   56.6603 F       1  ZINC000928803822   -0.1600
     22 C22        -3.4784    2.6994   51.2648 C.ar    1  ZINC000928803822   -0.1200
     23 H23        -6.7229    2.8958   50.6727 H       1  ZINC000928803822    0.0600
     24 H24        -5.9602    3.3509   49.1302 H       1  ZINC000928803822    0.0700
     25 H25        -7.1064    1.9902   49.1890 H       1  ZINC000928803822    0.0700
     26 H26        -5.4187   -0.3371   49.2234 H       1  ZINC000928803822    0.0500
     27 H27        -4.7397   -0.2558   50.8668 H       1  ZINC000928803822    0.0700
     28 H28        -6.4768    0.0319   50.6062 H       1  ZINC000928803822    0.0700
     29 H29        -3.3817    1.4790   48.1118 H       1  ZINC000928803822    0.1400
     30 H30        -0.2972    3.4176   50.3273 H       1  ZINC000928803822    0.1300
     31 H31        -2.6751    2.5805   53.8430 H       1  ZINC000928803822    0.4100
     32 H32        -2.4416    2.7562   56.5840 H       1  ZINC000928803822    0.1400
     33 H33        -1.0863    2.0214   55.6943 H       1  ZINC000928803822    0.1300
     34 H34        -4.1502    2.8000   52.1044 H       1  ZINC000928803822    0.1500
@<TRIPOS>BOND
     1     1     2    1
     2     1    23    1
     3     1    24    1
     4     1    25    1
     5     2     3    1
     6     2     4    1
     7     3    26    1
     8     3    27    1
     9     3    28    1
    10     4    22   ar
    11     4     5   ar
    12     5     6   ar
    13     5    29    1
    14     6     7    1
    15     6     8   ar
    16     8     9   ar
    17     8    30    1
    18     9    10    1
    19     9    22   ar
    20    10    11    2
    21    10    12   am
    22    12    13    1
    23    12    31    1
    24    13    14    1
    25    13    15    1
    26    13    18    1
    27    15    16    1
    28    15    32    1
    29    15    33    1
    30    16    17    3
    31    18    19    1
    32    18    20    1
    33    18    21    1
    34    22    34    1
@<TRIPOS>SUBSTRUCTURE
     1 ZINC000928803822        1 TEMP              0 ****  ****    0 ROOT


##########                                Name:    ZINC000345028113
##########                DOCK_Rotatable_Bonds:                   5
##########                         Heavy_Atoms:                  21
##########                    Molecular_Weight:             331.838
##########                DOCK_Rotatable_Bonds:                   5
##########                       Formal_Charge:         4.47035e-07
##########                     HBond_Acceptors:                   6
##########                        HBond_Donors:                   0
##########                         Heavy_Atoms:                  21
##########                          Grid_Score:          -27.126984
##########                     Grid_vdw_energy:          -26.471443
##########                      Grid_es_energy:           -0.655540
##########           Internal_energy_repulsive:           16.568367

@<TRIPOS>MOLECULE
ZINC000345028113
 40 41 1 0 0
SMALL
USER_CHARGES


@<TRIPOS>ATOM
      1 C1         -7.0807    2.3601   53.6963 C.3     1  ZINC000345028113   -0.1700
      2 C2         -7.7129    2.2608   52.3065 C.3     1  ZINC000345028113    0.1400
      3 H3         -7.3138    3.0494   51.6687 H       1  ZINC000345028113    0.1100
      4 C4         -9.2326    2.4191   52.4242 C.3     1  ZINC000345028113   -0.0700
      5 H5         -9.6812    2.3867   51.4314 H       1  ZINC000345028113    0.0900
      6 C6         -9.5587    3.7570   53.0909 C.3     1  ZINC000345028113   -0.1400
      7 S7         -9.8869    1.0564   53.4331 S.3     1  ZINC000345028113   -0.2400
      8 C8         -9.2491   -0.4082   52.5664 C.3     1  ZINC000345028113   -0.1100
      9 C9         -7.7278   -0.2803   52.4344 C.3     1  ZINC000345028113    0.1000
     10 N10        -7.4018    0.9557   51.7212 N.am    1  ZINC000345028113   -0.6100
     11 C11        -6.8088    0.8914   50.5126 C.2     1  ZINC000345028113    0.5200
     12 O12        -6.5468   -0.1865   50.0223 O.2     1  ZINC000345028113   -0.5300
     13 C13        -6.4713    2.1588   49.7705 C.3     1  ZINC000345028113   -0.1400
     14 C14        -5.2301    2.8000   50.3943 C.3     1  ZINC000345028113    0.0700
     15 O15        -4.0804    2.0080   50.0894 O.3     1  ZINC000345028113   -0.3000
     16 C16        -2.8647    2.5892   50.2708 C.ar    1  ZINC000345028113    0.1300
     17 C17        -2.5096    3.0808   51.5175 C.ar    1  ZINC000345028113   -0.1700
     18 C18        -1.2734    3.6709   51.7008 C.ar    1  ZINC000345028113   -0.1100
     19 C19        -0.3893    3.7715   50.6404 C.ar    1  ZINC000345028113    0.0800
     20 F20         0.8189    4.3482   50.8216 F       1  ZINC000345028113   -0.1300
     21 C21        -0.7418    3.2811   49.3942 C.ar    1  ZINC000345028113   -0.1100
     22 C22        -1.9753    2.6856   49.2091 C.ar    1  ZINC000345028113   -0.0400
     23 Cl23       -2.4173    2.0707   47.6470 Cl      1  ZINC000345028113   -0.0400
     24 H24        -5.9998    2.2476   53.6126 H       1  ZINC000345028113    0.0600
     25 H25        -7.3123    3.3319   54.1321 H       1  ZINC000345028113    0.0800
     26 H26        -7.4798    1.5715   54.3342 H       1  ZINC000345028113    0.0800
     27 H27        -9.1551    4.5710   52.4886 H       1  ZINC000345028113    0.0800
     28 H28       -10.6399    3.8677   53.1736 H       1  ZINC000345028113    0.0700
     29 H29        -9.1133    3.7855   54.0853 H       1  ZINC000345028113    0.0700
     30 H30        -9.4922   -1.3048   53.1366 H       1  ZINC000345028113    0.1200
     31 H31        -9.6979   -0.4704   51.5751 H       1  ZINC000345028113    0.0900
     32 H32        -7.2777   -0.2565   53.4268 H       1  ZINC000345028113    0.0900
     33 H33        -7.3383   -1.1336   51.8791 H       1  ZINC000345028113    0.1000
     34 H34        -6.2727    1.9254   48.7244 H       1  ZINC000345028113    0.1100
     35 H35        -7.3099    2.8521   49.8352 H       1  ZINC000345028113    0.1100
     36 H36        -5.0975    3.8036   49.9900 H       1  ZINC000345028113    0.0800
     37 H37        -5.3553    2.8576   51.4756 H       1  ZINC000345028113    0.0800
     38 H38        -3.1990    3.0031   52.3452 H       1  ZINC000345028113    0.1500
     39 H39        -0.9971    4.0543   52.6719 H       1  ZINC000345028113    0.1500
     40 H40        -0.0510    3.3604   48.5678 H       1  ZINC000345028113    0.1500
@<TRIPOS>BOND
     1     1     2    1
     2     1    24    1
     3     1    25    1
     4     1    26    1
     5     2     3    1
     6     2    10    1
     7     2     4    1
     8     4     5    1
     9     4     6    1
    10     4     7    1
    11     6    27    1
    12     6    28    1
    13     6    29    1
    14     7     8    1
    15     8     9    1
    16     8    30    1
    17     8    31    1
    18     9    10    1
    19     9    32    1
    20     9    33    1
    21    10    11   am
    22    11    12    2
    23    11    13    1
    24    13    14    1
    25    13    34    1
    26    13    35    1
    27    14    15    1
    28    14    36    1
    29    14    37    1
    30    15    16    1
    31    16    22   ar
    32    16    17   ar
    33    17    18   ar
    34    17    38    1
    35    18    19   ar
    36    18    39    1
    37    19    20    1
    38    19    21   ar
    39    21    22   ar
    40    21    40    1
    41    22    23    1
@<TRIPOS>SUBSTRUCTURE
     1 ZINC000345028113        1 TEMP              0 ****  ****    0 ROOT


##########                                Name:    ZINC000225856071
##########                DOCK_Rotatable_Bonds:                   6
##########                         Heavy_Atoms:                  29
##########                    Molecular_Weight:             409.549
##########                DOCK_Rotatable_Bonds:                   6
##########                       Formal_Charge:         -0.00999989
##########                     HBond_Acceptors:                   5
##########                        HBond_Donors:                   1
##########                         Heavy_Atoms:                  29
##########                          Grid_Score:          -27.108709
##########                     Grid_vdw_energy:          -27.153889
##########                      Grid_es_energy:            0.045179
##########           Internal_energy_repulsive:           37.338390

@<TRIPOS>MOLECULE
ZINC000225856071
 56 58 1 0 0
SMALL
USER_CHARGES


@<TRIPOS>ATOM
      1 C1          0.9301    3.5270   51.1124 C.3     1  ZINC000225856071    0.0200
      2 O2         -0.2620    4.2535   51.4170 O.3     1  ZINC000225856071   -0.3100
      3 C3         -1.4429    3.6063   51.2332 C.ar    1  ZINC000225856071    0.1900
      4 C4         -1.7544    3.0680   49.9935 C.ar    1  ZINC000225856071   -0.2300
      5 C5         -2.9553    2.4100   49.8093 C.ar    1  ZINC000225856071    0.0700
      6 C6         -3.2944    1.8249   48.4626 C.3     1  ZINC000225856071   -0.1800
      7 C7         -3.8459    2.2876   50.8595 C.ar    1  ZINC000225856071   -0.7100
      8 S8         -5.3763    1.4475   50.6216 S.o2    1  ZINC000225856071    2.7000
      9 O9         -6.0896    2.1839   49.6376 O.2     1  ZINC000225856071   -0.9600
     10 O10        -5.0600    0.0691   50.4832 O.2     1  ZINC000225856071   -0.9500
     11 N11        -6.2379    1.5905   52.0286 N.am    1  ZINC000225856071   -1.1100
     12 C12        -6.5969    2.9172   52.5360 C.3     1  ZINC000225856071    0.2400
     13 H13        -5.9611    3.6692   52.0687 H       1  ZINC000225856071    0.1100
     14 C14        -6.4028    2.9532   54.0299 C.ar    1  ZINC000225856071   -0.1000
     15 C15        -6.7621    1.8629   54.8001 C.ar    1  ZINC000225856071   -0.1000
     16 C16        -6.5840    1.8958   56.1705 C.ar    1  ZINC000225856071   -0.1200
     17 C17        -6.0462    3.0189   56.7708 C.ar    1  ZINC000225856071   -0.1100
     18 C18        -5.6860    4.1089   56.0005 C.ar    1  ZINC000225856071   -0.1100
     19 C19        -5.8601    4.0743   54.6296 C.ar    1  ZINC000225856071   -0.1000
     20 C20        -8.0396    3.2062   52.2097 C.ar    1  ZINC000225856071   -0.0900
     21 C21        -8.9403    2.1660   52.0790 C.ar    1  ZINC000225856071   -0.1000
     22 C22       -10.2638    2.4312   51.7798 C.ar    1  ZINC000225856071   -0.1200
     23 C23       -10.6862    3.7363   51.6117 C.ar    1  ZINC000225856071   -0.0800
     24 C24       -12.1287    4.0253   51.2850 C.3     1  ZINC000225856071   -0.1200
     25 C25        -9.7855    4.7770   51.7437 C.ar    1  ZINC000225856071   -0.1200
     26 C26        -8.4633    4.5121   52.0467 C.ar    1  ZINC000225856071   -0.0600
     27 C27        -7.4814    5.6463   52.1907 C.3     1  ZINC000225856071   -0.1300
     28 C28        -3.5375    2.8230   52.0966 C.ar    1  ZINC000225856071    0.0200
     29 C29        -2.3363    3.4779   52.2871 C.ar    1  ZINC000225856071   -0.1400
     30 C30        -2.0007    4.0608   53.6357 C.3     1  ZINC000225856071   -0.1100
     31 H31         0.9180    3.2323   50.0630 H       1  ZINC000225856071    0.0600
     32 H32         1.7986    4.1578   51.3025 H       1  ZINC000225856071    0.1000
     33 H33         0.9834    2.6368   51.7392 H       1  ZINC000225856071    0.0600
     34 H34        -1.0589    3.1633   49.1727 H       1  ZINC000225856071    0.1400
     35 H35        -2.9404    0.7951   48.4143 H       1  ZINC000225856071    0.0900
     36 H36        -4.3747    1.8449   48.3193 H       1  ZINC000225856071    0.1000
     37 H37        -2.8132    2.4115   47.6799 H       1  ZINC000225856071    0.0800
     38 H38        -6.5048    0.7960   52.5168 H       1  ZINC000225856071    0.4200
     39 H39        -7.1823    0.9854   54.3311 H       1  ZINC000225856071    0.1200
     40 H40        -6.8655    1.0443   56.7723 H       1  ZINC000225856071    0.1200
     41 H41        -5.9077    3.0450   57.8415 H       1  ZINC000225856071    0.1200
     42 H42        -5.2662    4.9864   56.4695 H       1  ZINC000225856071    0.1200
     43 H43        -5.5787    4.9258   54.0278 H       1  ZINC000225856071    0.1200
     44 H44        -8.6101    1.1461   52.2104 H       1  ZINC000225856071    0.1200
     45 H45       -10.9674    1.6183   51.6770 H       1  ZINC000225856071    0.1200
     46 H46       -12.6917    4.1545   52.2094 H       1  ZINC000225856071    0.0700
     47 H47       -12.1911    4.9372   50.6912 H       1  ZINC000225856071    0.0700
     48 H48       -12.5466    3.1932   50.7183 H       1  ZINC000225856071    0.0700
     49 H49       -10.1157    5.7968   51.6128 H       1  ZINC000225856071    0.1200
     50 H50        -7.4622    5.9807   53.2280 H       1  ZINC000225856071    0.0800
     51 H51        -6.4876    5.3056   51.9002 H       1  ZINC000225856071    0.0700
     52 H52        -7.7844    6.4729   51.5480 H       1  ZINC000225856071    0.0700
     53 H53        -4.2347    2.7258   52.9157 H       1  ZINC000225856071    0.1500
     54 H54        -1.4794    3.3140   54.2347 H       1  ZINC000225856071    0.0700
     55 H55        -1.3605    4.9333   53.5052 H       1  ZINC000225856071    0.0700
     56 H56        -2.9192    4.3565   54.1425 H       1  ZINC000225856071    0.0700
@<TRIPOS>BOND
     1     1     2    1
     2     1    31    1
     3     1    32    1
     4     1    33    1
     5     2     3    1
     6     3    29   ar
     7     3     4   ar
     8     4     5   ar
     9     4    34    1
    10     5     6    1
    11     5     7   ar
    12     6    35    1
    13     6    36    1
    14     6    37    1
    15     7     8    1
    16     7    28   ar
    17     8     9    2
    18     8    10    2
    19     8    11   am
    20    11    12    1
    21    11    38    1
    22    12    13    1
    23    12    14    1
    24    12    20    1
    25    14    19   ar
    26    14    15   ar
    27    15    16   ar
    28    15    39    1
    29    16    17   ar
    30    16    40    1
    31    17    18   ar
    32    17    41    1
    33    18    19   ar
    34    18    42    1
    35    19    43    1
    36    20    26   ar
    37    20    21   ar
    38    21    22   ar
    39    21    44    1
    40    22    23   ar
    41    22    45    1
    42    23    24    1
    43    23    25   ar
    44    24    46    1
    45    24    47    1
    46    24    48    1
    47    25    26   ar
    48    25    49    1
    49    26    27    1
    50    27    50    1
    51    27    51    1
    52    27    52    1
    53    28    29   ar
    54    28    53    1
    55    29    30    1
    56    30    54    1
    57    30    55    1
    58    30    56    1
@<TRIPOS>SUBSTRUCTURE
     1 ZINC000225856071        1 TEMP              0 ****  ****    0 ROOT


##########                                Name:    ZINC001173835973
##########                DOCK_Rotatable_Bonds:                   4
##########                         Heavy_Atoms:                  26
##########                    Molecular_Weight:             343.388
##########                DOCK_Rotatable_Bonds:                   4
##########                       Formal_Charge:           -0.010001
##########                     HBond_Acceptors:                   6
##########                        HBond_Donors:                   4
##########                         Heavy_Atoms:                  26
##########                          Grid_Score:          -27.102745
##########                     Grid_vdw_energy:          -26.786205
##########                      Grid_es_energy:           -0.316540
##########           Internal_energy_repulsive:            8.420283

@<TRIPOS>MOLECULE
ZINC001173835973
 43 46 1 0 0
SMALL
USER_CHARGES


@<TRIPOS>ATOM
      1 C1         -9.8328    2.6870   52.8387 C.3     1  ZINC001173835973   -0.1700
      2 C2         -8.6548    2.3807   51.9501 C.2     1  ZINC001173835973    0.5100
      3 O3         -8.5799    2.8818   50.8482 O.2     1  ZINC001173835973   -0.5200
      4 N4         -7.6844    1.5500   52.3800 N.am    1  ZINC001173835973   -0.6800
      5 C5         -6.5907    1.2656   51.5550 C.ar    1  ZINC001173835973    0.1800
      6 C6         -6.2774   -0.0518   51.2453 C.ar    1  ZINC001173835973   -0.1900
      7 C7         -5.1973   -0.3340   50.4305 C.ar    1  ZINC001173835973   -0.0600
      8 C8         -4.4260    0.6922   49.9210 C.ar    1  ZINC001173835973   -0.1900
      9 C9         -4.7340    2.0129   50.2270 C.ar    1  ZINC001173835973    0.2200
     10 N10        -3.9540    3.0499   49.7117 N.pl3   1  ZINC001173835973   -0.6900
     11 C11        -2.5813    2.8610   49.5130 C.ar    1  ZINC001173835973    0.0400
     12 C12        -2.1270    2.4179   48.3058 C.ar    1  ZINC001173835973    0.2400
     13 N13        -3.0368    2.1556   47.2753 N.pl3   1  ZINC001173835973   -0.8600
     14 C14        -0.7000    2.2157   48.0805 C.ar    1  ZINC001173835973   -0.1100
     15 C15        -0.2261    1.7602   46.8394 C.ar    1  ZINC001173835973   -0.0600
     16 C16         1.1228    1.5887   46.6840 C.ar    1  ZINC001173835973   -0.1700
     17 C17         1.9809    1.8648   47.7419 C.ar    1  ZINC001173835973    0.1200
     18 N18         1.5296    2.2907   48.8997 N.ar    1  ZINC001173835973   -0.4400
     19 C19         0.2288    2.4770   49.1119 C.ar    1  ZINC001173835973    0.1900
     20 C20        -0.2600    2.9538   50.4110 C.ar    1  ZINC001173835973    0.1300
     21 N21         0.5868    3.2102   51.4055 N.ar    1  ZINC001173835973   -0.4400
     22 C22         0.1630    3.6374   52.5733 C.ar    1  ZINC001173835973    0.1000
     23 C23        -1.1880    3.8420   52.8261 C.ar    1  ZINC001173835973   -0.1500
     24 C24        -2.1091    3.5963   51.8438 C.ar    1  ZINC001173835973   -0.0700
     25 C25        -1.6470    3.1452   50.5969 C.ar    1  ZINC001173835973   -0.0400
     26 C26        -5.8214    2.2995   51.0409 C.ar    1  ZINC001173835973   -0.1900
     27 H27       -10.5073    3.3717   52.3246 H       1  ZINC001173835973    0.1000
     28 H28       -10.3617    1.7630   53.0723 H       1  ZINC001173835973    0.0900
     29 H29        -9.4814    3.1479   53.7618 H       1  ZINC001173835973    0.0900
     30 H30        -7.7443    1.1492   53.2613 H       1  ZINC001173835973    0.4100
     31 H31        -6.8785   -0.8567   51.6420 H       1  ZINC001173835973    0.1200
     32 H32        -4.9557   -1.3593   50.1920 H       1  ZINC001173835973    0.1200
     33 H33        -3.5827    0.4684   49.2846 H       1  ZINC001173835973    0.1200
     34 H34        -4.3632    3.9014   49.4914 H       1  ZINC001173835973    0.4000
     35 H35        -3.9766    2.3651   47.3930 H       1  ZINC001173835973    0.4100
     36 H36        -2.7275    1.7643   46.4433 H       1  ZINC001173835973    0.4000
     37 H37        -0.9084    1.5504   46.0289 H       1  ZINC001173835973    0.1400
     38 H38         1.5194    1.2392   45.7421 H       1  ZINC001173835973    0.1400
     39 H39         3.0436    1.7258   47.6090 H       1  ZINC001173835973    0.1700
     40 H40         0.8816    3.8340   53.3553 H       1  ZINC001173835973    0.1600
     41 H41        -1.5104    4.1935   53.7950 H       1  ZINC001173835973    0.1400
     42 H42        -3.1632    3.7492   52.0220 H       1  ZINC001173835973    0.1400
     43 H43        -6.0631    3.3245   51.2799 H       1  ZINC001173835973    0.1400
@<TRIPOS>BOND
     1     1     2    1
     2     1    27    1
     3     1    28    1
     4     1    29    1
     5     2     3    2
     6     2     4   am
     7     4     5    1
     8     4    30    1
     9     5    26   ar
    10     5     6   ar
    11     6     7   ar
    12     6    31    1
    13     7     8   ar
    14     7    32    1
    15     8     9   ar
    16     8    33    1
    17     9    10    1
    18     9    26   ar
    19    10    11    1
    20    10    34    1
    21    11    25   ar
    22    11    12   ar
    23    12    13    1
    24    12    14   ar
    25    13    35    1
    26    13    36    1
    27    14    19   ar
    28    14    15   ar
    29    15    16   ar
    30    15    37    1
    31    16    17   ar
    32    16    38    1
    33    17    18   ar
    34    17    39    1
    35    18    19   ar
    36    19    20   ar
    37    20    25   ar
    38    20    21   ar
    39    21    22   ar
    40    22    23   ar
    41    22    40    1
    42    23    24   ar
    43    23    41    1
    44    24    25   ar
    45    24    42    1
    46    26    43    1
@<TRIPOS>SUBSTRUCTURE
     1 ZINC001173835973        1 TEMP              0 ****  ****    0 ROOT


##########                                Name:    ZINC000331626032
##########                DOCK_Rotatable_Bonds:                   5
##########                         Heavy_Atoms:                  25
##########                    Molecular_Weight:              339.44
##########                DOCK_Rotatable_Bonds:                   5
##########                       Formal_Charge:        -2.16067e-07
##########                     HBond_Acceptors:                   6
##########                        HBond_Donors:                   2
##########                         Heavy_Atoms:                  25
##########                          Grid_Score:          -27.047262
##########                     Grid_vdw_energy:          -27.113768
##########                      Grid_es_energy:            0.066505
##########           Internal_energy_repulsive:           34.632286

@<TRIPOS>MOLECULE
ZINC000331626032
 50 52 1 0 0
SMALL
USER_CHARGES


@<TRIPOS>ATOM
      1 C1         -7.0937   -0.4363   51.0668 C.3     1  ZINC000331626032   -0.2000
      2 C2         -7.5984    0.9668   51.4095 C.3     1  ZINC000331626032    0.0700
      3 H3         -8.6680    1.0273   51.2085 H       1  ZINC000331626032    0.1100
      4 C4         -7.3446    1.2497   52.8678 C.2     1  ZINC000331626032    0.5200
      5 O5         -6.2593    1.0082   53.3524 O.2     1  ZINC000331626032   -0.5000
      6 N6         -8.3236    1.7710   53.6334 N.am    1  ZINC000331626032   -0.5800
      7 C7         -9.6345    2.0626   53.0482 C.3     1  ZINC000331626032    0.0800
      8 C8         -8.0878    2.0336   54.9875 C.ar    1  ZINC000331626032    0.1400
      9 C9         -8.7462    1.2975   55.9639 C.ar    1  ZINC000331626032   -0.1000
     10 C10        -8.5112    1.5591   57.2995 C.ar    1  ZINC000331626032   -0.1100
     11 C11        -7.6222    2.5531   57.6650 C.ar    1  ZINC000331626032   -0.1200
     12 C12        -6.9654    3.2881   56.6951 C.ar    1  ZINC000331626032   -0.1100
     13 C13        -7.1908    3.0269   55.3578 C.ar    1  ZINC000331626032   -0.1200
     14 N14        -6.8890    1.9566   50.5879 N.3     1  ZINC000331626032   -0.5100
     15 C15        -7.3845    3.3132   50.8536 C.3     1  ZINC000331626032    0.0500
     16 C16        -6.7294    4.2965   49.8810 C.3     1  ZINC000331626032   -0.1100
     17 C17        -5.2093    4.2447   50.0570 C.3     1  ZINC000331626032   -0.1100
     18 C18        -4.7248    2.8113   49.8224 C.3     1  ZINC000331626032   -0.0400
     19 H19        -4.9507    2.5138   48.7983 H       1  ZINC000331626032    0.1000
     20 C20        -3.2369    2.7393   50.0506 C.ar    1  ZINC000331626032    0.2300
     21 C21        -2.7204    2.8060   51.3348 C.ar    1  ZINC000331626032   -0.2900
     22 C22        -1.3459    2.7362   51.5007 C.ar    1  ZINC000331626032    0.1900
     23 N23        -0.5730    2.6087   50.4350 N.ar    1  ZINC000331626032   -0.5700
     24 C24        -1.0990    2.5478   49.2204 C.ar    1  ZINC000331626032    0.5700
     25 N25        -0.2607    2.4139   48.1272 N.pl3   1  ZINC000331626032   -0.8200
     26 N26        -2.4084    2.6062   49.0279 N.ar    1  ZINC000331626032   -0.5700
     27 C27        -5.4380    1.8710   50.7966 C.3     1  ZINC000331626032    0.0700
     28 H28        -6.0241   -0.4968   51.2678 H       1  ZINC000331626032    0.0700
     29 H29        -7.6200   -1.1708   51.6764 H       1  ZINC000331626032    0.0800
     30 H30        -7.2773   -0.6410   50.0120 H       1  ZINC000331626032    0.0700
     31 H31       -10.2773    1.1873   53.1421 H       1  ZINC000331626032    0.0600
     32 H32       -10.0875    2.9041   53.5726 H       1  ZINC000331626032    0.0800
     33 H33        -9.5142    2.3135   51.9943 H       1  ZINC000331626032    0.0800
     34 H34        -9.4413    0.5215   55.6791 H       1  ZINC000331626032    0.1200
     35 H35        -9.0230    0.9870   58.0593 H       1  ZINC000331626032    0.1300
     36 H36        -7.4404    2.7559   58.7101 H       1  ZINC000331626032    0.1300
     37 H37        -6.2720    4.0642   56.9837 H       1  ZINC000331626032    0.1300
     38 H38        -6.6776    3.6013   54.6008 H       1  ZINC000331626032    0.1200
     39 H39        -8.4661    3.3373   50.7209 H       1  ZINC000331626032    0.0900
     40 H40        -7.1379    3.5960   51.8770 H       1  ZINC000331626032    0.0300
     41 H41        -6.9868    4.0225   48.8579 H       1  ZINC000331626032    0.0800
     42 H42        -7.0856    5.3056   50.0886 H       1  ZINC000331626032    0.0700
     43 H43        -4.7362    4.9117   49.3364 H       1  ZINC000331626032    0.0700
     44 H44        -4.9488    4.5561   51.0686 H       1  ZINC000331626032    0.0700
     45 H45        -3.3745    2.9106   52.1878 H       1  ZINC000331626032    0.1400
     46 H46        -0.9113    2.7856   52.4882 H       1  ZINC000331626032    0.1700
     47 H47         0.6995    2.3656   48.2553 H       1  ZINC000331626032    0.4100
     48 H48        -0.6336    2.3682   47.2329 H       1  ZINC000331626032    0.4100
     49 H49        -5.2006    2.1605   51.8203 H       1  ZINC000331626032    0.0400
     50 H50        -5.1059    0.8475   50.6225 H       1  ZINC000331626032    0.0800
@<TRIPOS>BOND
     1     1     2    1
     2     1    28    1
     3     1    29    1
     4     1    30    1
     5     2     3    1
     6     2     4    1
     7     2    14    1
     8     4     5    2
     9     4     6   am
    10     6     7    1
    11     6     8    1
    12     7    31    1
    13     7    32    1
    14     7    33    1
    15     8    13   ar
    16     8     9   ar
    17     9    10   ar
    18     9    34    1
    19    10    11   ar
    20    10    35    1
    21    11    12   ar
    22    11    36    1
    23    12    13   ar
    24    12    37    1
    25    13    38    1
    26    14    27    1
    27    14    15    1
    28    15    16    1
    29    15    39    1
    30    15    40    1
    31    16    17    1
    32    16    41    1
    33    16    42    1
    34    17    18    1
    35    17    43    1
    36    17    44    1
    37    18    19    1
    38    18    20    1
    39    18    27    1
    40    20    26   ar
    41    20    21   ar
    42    21    22   ar
    43    21    45    1
    44    22    23   ar
    45    22    46    1
    46    23    24   ar
    47    24    25    1
    48    24    26   ar
    49    25    47    1
    50    25    48    1
    51    27    49    1
    52    27    50    1
@<TRIPOS>SUBSTRUCTURE
     1 ZINC000331626032        1 TEMP              0 ****  ****    0 ROOT


##########                                Name:    ZINC000371438955
##########                DOCK_Rotatable_Bonds:                   4
##########                         Heavy_Atoms:                  25
##########                    Molecular_Weight:             387.499
##########                DOCK_Rotatable_Bonds:                   4
##########                       Formal_Charge:          -0.0299995
##########                     HBond_Acceptors:                   9
##########                        HBond_Donors:                   1
##########                         Heavy_Atoms:                  25
##########                          Grid_Score:          -27.010538
##########                     Grid_vdw_energy:          -24.459257
##########                      Grid_es_energy:           -2.551281
##########           Internal_energy_repulsive:           24.600920

@<TRIPOS>MOLECULE
ZINC000371438955
 47 49 1 0 0
SMALL
USER_CHARGES


@<TRIPOS>ATOM
      1 C1         -8.0982    0.8902   56.5720 C.3     1  ZINC000371438955   -0.6800
      2 S2         -8.6582    2.5084   57.1708 S.o2    1  ZINC000371438955    2.6000
      3 O3         -9.4518    3.1569   56.1864 O.2     1  ZINC000371438955   -0.9500
      4 O4         -9.0945    2.4171   58.5201 O.2     1  ZINC000371438955   -0.9500
      5 N5         -7.2782    3.4204   57.2485 N.am    1  ZINC000371438955   -0.9900
      6 C6         -7.3696    4.7812   57.6939 C.3     1  ZINC000371438955    0.1300
      7 C7         -7.7017    5.6579   56.4748 C.3     1  ZINC000371438955   -0.1700
      8 C8         -6.5148    5.9108   55.6428 C.3     1  ZINC000371438955    0.1400
      9 N9         -5.9301    4.6312   55.1766 N.am    1  ZINC000371438955   -0.6200
     10 C10        -6.1432    4.2145   53.9127 C.2     1  ZINC000371438955    0.7100
     11 O11        -6.8148    4.8882   53.1555 O.2     1  ZINC000371438955   -0.5800
     12 N12        -5.6118    3.0509   53.4881 N.am    1  ZINC000371438955   -0.7400
     13 C13        -5.8434    2.5979   52.1142 C.3     1  ZINC000371438955    0.2000
     14 H14        -6.6403    3.2007   51.6787 H       1  ZINC000371438955    0.1100
     15 C15        -6.2947    1.1482   52.1500 C.3     1  ZINC000371438955   -0.1300
     16 C16        -6.5787    0.6784   50.7163 C.3     1  ZINC000371438955   -0.1100
     17 S17        -4.9768    0.4901   49.8816 S.3     1  ZINC000371438955   -0.1000
     18 C18        -4.1367    1.9792   50.3183 C.ar    1  ZINC000371438955   -0.1100
     19 C19        -2.9732    2.3000   49.6132 C.ar    1  ZINC000371438955    0.1100
     20 F20        -2.5394    1.4819   48.6295 F       1  ZINC000371438955   -0.1300
     21 C21        -2.2642    3.4448   49.9125 C.ar    1  ZINC000371438955   -0.1300
     22 C22        -2.7109    4.2777   50.9226 C.ar    1  ZINC000371438955   -0.1000
     23 C23        -3.8591    3.9649   51.6169 C.ar    1  ZINC000371438955   -0.1000
     24 C24        -4.5891    2.8136   51.3196 C.ar    1  ZINC000371438955   -0.0800
     25 C25        -5.1363    3.8350   56.0703 C.3     1  ZINC000371438955    0.1000
     26 C26        -5.9820    2.8003   56.8600 C.3     1  ZINC000371438955    0.0900
     27 H27        -7.6316    1.0063   55.5939 H       1  ZINC000371438955    0.1300
     28 H28        -7.3745    0.4740   57.2728 H       1  ZINC000371438955    0.1300
     29 H29        -8.9522    0.2178   56.4897 H       1  ZINC000371438955    0.1300
     30 H30        -8.1592    4.8726   58.4397 H       1  ZINC000371438955    0.0800
     31 H31        -6.4178    5.0930   58.1238 H       1  ZINC000371438955    0.0800
     32 H32        -8.4576    5.1554   55.8714 H       1  ZINC000371438955    0.0800
     33 H33        -8.1019    6.6108   56.8213 H       1  ZINC000371438955    0.0900
     34 H34        -6.8006    6.5124   54.7799 H       1  ZINC000371438955    0.0900
     35 H35        -5.7730    6.4542   56.2282 H       1  ZINC000371438955    0.0700
     36 H36        -5.0760    2.5135   54.0922 H       1  ZINC000371438955    0.4000
     37 H37        -5.5087    0.5321   52.5868 H       1  ZINC000371438955    0.0900
     38 H38        -7.2019    1.0631   52.7482 H       1  ZINC000371438955    0.1000
     39 H39        -7.1011   -0.2780   50.7361 H       1  ZINC000371438955    0.1200
     40 H40        -7.1830    1.4214   50.1955 H       1  ZINC000371438955    0.1000
     41 H41        -1.3673    3.6887   49.3628 H       1  ZINC000371438955    0.1400
     42 H42        -2.1592    5.1733   51.1673 H       1  ZINC000371438955    0.1300
     43 H43        -4.1985    4.6208   52.4049 H       1  ZINC000371438955    0.1400
     44 H44        -4.3795    3.3047   55.4924 H       1  ZINC000371438955    0.0800
     45 H45        -4.6373    4.4940   56.7807 H       1  ZINC000371438955    0.0900
     46 H46        -5.4380    2.4917   57.7527 H       1  ZINC000371438955    0.0800
     47 H47        -6.1720    1.9305   56.2311 H       1  ZINC000371438955    0.1000
@<TRIPOS>BOND
     1     1     2    1
     2     1    27    1
     3     1    28    1
     4     1    29    1
     5     2     3    2
     6     2     4    2
     7     2     5   am
     8     5    26    1
     9     5     6    1
    10     6     7    1
    11     6    30    1
    12     6    31    1
    13     7     8    1
    14     7    32    1
    15     7    33    1
    16     8     9    1
    17     8    34    1
    18     8    35    1
    19     9    10   am
    20     9    25    1
    21    10    11    2
    22    10    12   am
    23    12    13    1
    24    12    36    1
    25    13    14    1
    26    13    24    1
    27    13    15    1
    28    15    16    1
    29    15    37    1
    30    15    38    1
    31    16    17    1
    32    16    39    1
    33    16    40    1
    34    17    18    1
    35    18    24   ar
    36    18    19   ar
    37    19    20    1
    38    19    21   ar
    39    21    22   ar
    40    21    41    1
    41    22    23   ar
    42    22    42    1
    43    23    24   ar
    44    23    43    1
    45    25    26    1
    46    25    44    1
    47    25    45    1
    48    26    46    1
    49    26    47    1
@<TRIPOS>SUBSTRUCTURE
     1 ZINC000371438955        1 TEMP              0 ****  ****    0 ROOT


##########                                Name:    ZINC000648570180
##########                DOCK_Rotatable_Bonds:                   4
##########                         Heavy_Atoms:                  25
##########                    Molecular_Weight:             342.484
##########                DOCK_Rotatable_Bonds:                   4
##########                       Formal_Charge:          0.00999971
##########                     HBond_Acceptors:                   5
##########                        HBond_Donors:                   0
##########                         Heavy_Atoms:                  25
##########                          Grid_Score:          -26.998236
##########                     Grid_vdw_energy:          -26.530458
##########                      Grid_es_energy:           -0.467777
##########           Internal_energy_repulsive:           81.137764

@<TRIPOS>MOLECULE
ZINC000648570180
 55 58 1 0 0
SMALL
USER_CHARGES


@<TRIPOS>ATOM
      1 C1        -12.4507   -1.9865   55.9039 C.3     1  ZINC000648570180   -0.1500
      2 C2        -12.9399   -1.5175   57.2757 C.3     1  ZINC000648570180   -0.0600
      3 C3        -14.3167   -0.8630   57.1451 C.3     1  ZINC000648570180   -0.1400
      4 C4        -13.0120   -2.7129   58.2482 C.3     1  ZINC000648570180   -0.1200
      5 C5        -12.5607   -2.1242   59.6078 C.3     1  ZINC000648570180   -0.1300
      6 C6        -11.4344   -1.1428   59.1985 C.3     1  ZINC000648570180   -0.1200
      7 C7        -11.9369   -0.5192   57.8799 C.3     1  ZINC000648570180   -0.0700
      8 H8        -12.4312    0.4313   58.0809 H       1  ZINC000648570180    0.0800
      9 C9        -10.7644   -0.3070   56.9203 C.3     1  ZINC000648570180   -0.1000
     10 H10       -10.4588   -1.2494   56.4656 H       1  ZINC000648570180    0.1000
     11 C11       -11.1166    0.7452   55.8358 C.3     1  ZINC000648570180   -0.1400
     12 C12        -9.7364    1.3151   55.4459 C.3     1  ZINC000648570180    0.1200
     13 N13        -8.8232    1.0533   56.5681 N.am    1  ZINC000648570180   -0.6000
     14 C14        -7.5166    1.3806   56.6103 C.2     1  ZINC000648570180    0.5800
     15 O15        -6.8549    1.1134   57.5933 O.2     1  ZINC000648570180   -0.5200
     16 C16        -6.8858    2.0678   55.4552 C.ar    1  ZINC000648570180    0.1600
     17 C17        -6.2388    3.2913   55.6264 C.ar    1  ZINC000648570180   -0.2000
     18 C18        -5.6635    3.8956   54.5169 C.ar    1  ZINC000648570180    0.1800
     19 N19        -5.7455    3.2981   53.3416 N.ar    1  ZINC000648570180   -0.5400
     20 C20        -6.3674    2.1346   53.2098 C.ar    1  ZINC000648570180    0.4800
     21 N21        -6.4309    1.5419   51.9604 N.3     1  ZINC000648570180   -0.4400
     22 C22        -6.9643    2.4893   50.9482 C.3     1  ZINC000648570180    0.0500
     23 C23        -6.4805    1.8841   49.6065 C.3     1  ZINC000648570180   -0.1200
     24 C24        -5.0735    1.3476   49.9568 C.3     1  ZINC000648570180   -0.1300
     25 C25        -5.0831    1.1610   51.4853 C.3     1  ZINC000648570180    0.0400
     26 N26        -6.9244    1.5228   54.2418 N.ar    1  ZINC000648570180   -0.5000
     27 C27        -9.5736    0.3736   57.6403 C.3     1  ZINC000648570180    0.1100
     28 H28       -11.4268   -2.3504   55.9882 H       1  ZINC000648570180    0.0600
     29 H29       -13.0934   -2.7901   55.5443 H       1  ZINC000648570180    0.0500
     30 H30       -12.4836   -1.1532   55.2021 H       1  ZINC000648570180    0.0700
     31 H31       -15.0224   -1.5814   56.7279 H       1  ZINC000648570180    0.0500
     32 H32       -14.6619   -0.5437   58.1284 H       1  ZINC000648570180    0.0500
     33 H33       -14.2466    0.0022   56.4860 H       1  ZINC000648570180    0.0500
     34 H34       -14.0329   -3.0890   58.3152 H       1  ZINC000648570180    0.0600
     35 H35       -12.3330   -3.5043   57.9308 H       1  ZINC000648570180    0.0700
     36 H36       -13.3808   -1.5918   60.0896 H       1  ZINC000648570180    0.0700
     37 H37       -12.1725   -2.9080   60.2583 H       1  ZINC000648570180    0.0700
     38 H38       -11.3041   -0.3730   59.9591 H       1  ZINC000648570180    0.0700
     39 H39       -10.5007   -1.6806   59.0346 H       1  ZINC000648570180    0.0700
     40 H40       -11.5940    0.2706   54.9785 H       1  ZINC000648570180    0.0900
     41 H41       -11.7537    1.5269   56.2496 H       1  ZINC000648570180    0.0800
     42 H42        -9.3709    0.8187   54.5471 H       1  ZINC000648570180    0.0800
     43 H43        -9.8138    2.3886   55.2737 H       1  ZINC000648570180    0.0700
     44 H44        -6.1869    3.7578   56.5991 H       1  ZINC000648570180    0.1600
     45 H45        -5.1549    4.8434   54.6135 H       1  ZINC000648570180    0.1800
     46 H46        -8.0532    2.5198   50.9861 H       1  ZINC000648570180    0.1000
     47 H47        -6.5452    3.4848   51.0947 H       1  ZINC000648570180    0.0500
     48 H48        -7.1355    1.0720   49.2913 H       1  ZINC000648570180    0.0800
     49 H49        -6.4194    2.6530   48.8364 H       1  ZINC000648570180    0.0800
     50 H50        -4.8981    0.3933   49.4602 H       1  ZINC000648570180    0.0800
     51 H51        -4.3104    2.0707   49.6687 H       1  ZINC000648570180    0.0700
     52 H52        -4.3324    1.8052   51.9428 H       1  ZINC000648570180    0.0900
     53 H53        -4.8829    0.1187   51.7334 H       1  ZINC000648570180    0.0900
     54 H54        -9.9362    1.0994   58.3683 H       1  ZINC000648570180    0.0700
     55 H55        -8.9466   -0.3729   58.1277 H       1  ZINC000648570180    0.0800
@<TRIPOS>BOND
     1     1     2    1
     2     1    28    1
     3     1    29    1
     4     1    30    1
     5     2     7    1
     6     2     3    1
     7     2     4    1
     8     3    31    1
     9     3    32    1
    10     3    33    1
    11     4     5    1
    12     4    34    1
    13     4    35    1
    14     5     6    1
    15     5    36    1
    16     5    37    1
    17     6     7    1
    18     6    38    1
    19     6    39    1
    20     7     8    1
    21     7     9    1
    22     9    10    1
    23     9    27    1
    24     9    11    1
    25    11    12    1
    26    11    40    1
    27    11    41    1
    28    12    13    1
    29    12    42    1
    30    12    43    1
    31    13    14   am
    32    13    27    1
    33    14    15    2
    34    14    16    1
    35    16    26   ar
    36    16    17   ar
    37    17    18   ar
    38    17    44    1
    39    18    19   ar
    40    18    45    1
    41    19    20   ar
    42    20    21    1
    43    20    26   ar
    44    21    25    1
    45    21    22    1
    46    22    23    1
    47    22    46    1
    48    22    47    1
    49    23    24    1
    50    23    48    1
    51    23    49    1
    52    24    25    1
    53    24    50    1
    54    24    51    1
    55    25    52    1
    56    25    53    1
    57    27    54    1
    58    27    55    1
@<TRIPOS>SUBSTRUCTURE
     1 ZINC000648570180        1 TEMP              0 ****  ****    0 ROOT


##########                                Name:    ZINC000012087388
##########                DOCK_Rotatable_Bonds:                   5
##########                         Heavy_Atoms:                  29
##########                    Molecular_Weight:              418.52
##########                DOCK_Rotatable_Bonds:                   5
##########                       Formal_Charge:          -0.0499999
##########                     HBond_Acceptors:                  10
##########                        HBond_Donors:                   1
##########                         Heavy_Atoms:                  29
##########                          Grid_Score:          -26.996311
##########                     Grid_vdw_energy:          -26.806080
##########                      Grid_es_energy:           -0.190232
##########           Internal_energy_repulsive:           35.936153

@<TRIPOS>MOLECULE
ZINC000012087388
 55 58 1 0 0
SMALL
USER_CHARGES


@<TRIPOS>ATOM
      1 C1          1.6697    4.7262   52.9536 C.3     1  <0>        -0.6600
      2 S2          0.9941    5.9479   51.7954 S.o2    1  <0>         2.5100
      3 O3          0.5813    7.1174   52.4889 O.2     1  <0>        -0.9400
      4 O4          1.8055    6.0341   50.6321 O.2     1  <0>        -0.9300
      5 C5         -0.5092    5.2280   51.2243 C.ar    1  <0>        -0.8400
      6 C6         -1.7317    5.8042   51.5313 C.ar    1  <0>         0.3000
      7 N7         -2.8416    5.2385   51.0865 N.ar    1  <0>        -0.5800
      8 C8         -2.7933    4.1345   50.3559 C.ar    1  <0>         0.6000
      9 N9         -3.9742    3.5692   49.9069 N.pl3   1  <0>        -0.5700
     10 C10        -3.9536    2.4173   48.9950 C.3     1  <0>         0.1200
     11 C11        -4.8083    1.2971   49.5962 C.3     1  <0>        -0.1400
     12 C12        -6.2089    1.8353   49.8974 C.3     1  <0>        -0.1200
     13 C13        -6.1122    2.9705   50.9192 C.3     1  <0>        -0.1400
     14 C14        -5.2723    4.1059   50.3378 C.3     1  <0>         0.1200
     15 N15        -1.6413    3.5588   50.0443 N.ar    1  <0>        -0.5700
     16 C16        -0.4946    4.0759   50.4533 C.ar    1  <0>         0.3200
     17 C17         0.8111    3.4149   50.0945 C.3     1  <0>        -0.0700
     18 C18         0.8091    1.9718   50.6042 C.3     1  <0>        -0.1300
     19 C19         2.1511    1.3140   50.2682 C.3     1  <0>         0.0900
     20 N20         2.3933    1.4438   48.8249 N.am    1  <0>        -0.6100
     21 C21         2.6691    0.3587   48.0745 C.2     1  <0>         0.5900
     22 O22         2.7196   -0.7412   48.5912 O.2     1  <0>        -0.5100
     23 C23         2.9093    0.5048   46.6300 C.2     1  <0>        -0.0400
     24 C24         2.0715    0.1040   45.6039 C.2     1  <0>        -0.1500
     25 C25         2.7342    0.4566   44.4260 C.2     1  <0>         0.0000
     26 N26         3.8689    1.0183   44.7567 N.2     1  <0>        -0.2700
     27 N27         4.0012    1.0684   46.0333 N.pl3   1  <0>        -0.3900
     28 C28         2.3286    2.7789   48.2150 C.3     1  <0>         0.1100
     29 C29         0.9846    3.4204   48.5739 C.3     1  <0>        -0.1200
     30 H30         0.9612    4.5652   53.7661 H       1  <0>         0.1400
     31 H31         1.8421    3.7858   52.4301 H       1  <0>         0.1300
     32 H32         2.6120    5.0935   53.3605 H       1  <0>         0.1400
     33 H33        -1.7775    6.7040   52.1268 H       1  <0>         0.1900
     34 H34        -4.3622    2.7097   48.0277 H       1  <0>         0.0700
     35 H35        -2.9285    2.0683   48.8705 H       1  <0>         0.1000
     36 H36        -4.8800    0.4733   48.8861 H       1  <0>         0.0800
     37 H37        -4.3480    0.9437   50.5190 H       1  <0>         0.0700
     38 H38        -6.6589    2.2111   48.9785 H       1  <0>         0.0700
     39 H39        -6.8266    1.0337   50.3025 H       1  <0>         0.0700
     40 H40        -7.1120    3.3376   51.1508 H       1  <0>         0.0800
     41 H41        -5.6397    2.6013   51.8295 H       1  <0>         0.0700
     42 H42        -5.1184    4.8723   51.0974 H       1  <0>         0.1000
     43 H43        -5.7861    4.5375   49.4789 H       1  <0>         0.0700
     44 H44         1.6337    3.9615   50.5558 H       1  <0>         0.1000
     45 H45         0.6622    1.9677   51.6842 H       1  <0>         0.0800
     46 H46         0.0022    1.4178   50.1246 H       1  <0>         0.0900
     47 H47         2.9497    1.8110   50.8189 H       1  <0>         0.0800
     48 H48         2.1190    0.2588   50.5399 H       1  <0>         0.0900
     49 H49         1.1097   -0.3788   45.6946 H       1  <0>         0.1700
     50 H50         2.3743    0.2940   43.4208 H       1  <0>         0.1900
     51 H51         4.7633    1.4428   46.5021 H       1  <0>         0.4400
     52 H52         3.1417    3.3955   48.5982 H       1  <0>         0.0800
     53 H53         2.4136    2.6904   47.1319 H       1  <0>         0.1000
     54 H54         0.1760    2.8528   48.1135 H       1  <0>         0.0800
     55 H55         0.9626    4.4473   48.2090 H       1  <0>         0.0900
@<TRIPOS>BOND
     1     1     2    1
     2     1    30    1
     3     1    31    1
     4     1    32    1
     5     2     3    2
     6     2     4    2
     7     2     5    1
     8     5    16   ar
     9     5     6   ar
    10     6     7   ar
    11     6    33    1
    12     7     8   ar
    13     8     9    1
    14     8    15   ar
    15     9    14    1
    16     9    10    1
    17    10    11    1
    18    10    34    1
    19    10    35    1
    20    11    12    1
    21    11    36    1
    22    11    37    1
    23    12    13    1
    24    12    38    1
    25    12    39    1
    26    13    14    1
    27    13    40    1
    28    13    41    1
    29    14    42    1
    30    14    43    1
    31    15    16   ar
    32    16    17    1
    33    17    29    1
    34    17    18    1
    35    17    44    1
    36    18    19    1
    37    18    45    1
    38    18    46    1
    39    19    20    1
    40    19    47    1
    41    19    48    1
    42    20    21   am
    43    20    28    1
    44    21    22    2
    45    21    23    1
    46    23    27    1
    47    23    24    2
    48    24    25    1
    49    24    49    1
    50    25    26    2
    51    25    50    1
    52    26    27    1
    53    27    51    1
    54    28    29    1
    55    28    52    1
    56    28    53    1
    57    29    54    1
    58    29    55    1
@<TRIPOS>SUBSTRUCTURE
     1 <0>         1 TEMP              0 ****  ****    0 ROOT


##########                                Name:    ZINC000879023512
##########                DOCK_Rotatable_Bonds:                   4
##########                         Heavy_Atoms:                  20
##########                    Molecular_Weight:             346.156
##########                DOCK_Rotatable_Bonds:                   4
##########                       Formal_Charge:        -5.96046e-08
##########                     HBond_Acceptors:                   7
##########                        HBond_Donors:                   1
##########                         Heavy_Atoms:                  20
##########                          Grid_Score:          -26.978542
##########                     Grid_vdw_energy:          -26.111073
##########                      Grid_es_energy:           -0.867469
##########           Internal_energy_repulsive:            5.255423

@<TRIPOS>MOLECULE
ZINC000879023512
 33 34 1 0 0
SMALL
USER_CHARGES


@<TRIPOS>ATOM
      1 O1         -4.9043    0.1066   51.0222 O.2     1  ZINC000879023512   -0.5600
      2 C2         -5.5558    0.9979   51.5318 C.2     1  ZINC000879023512    0.7200
      3 N3         -5.0240    2.2289   51.6665 N.am    1  ZINC000879023512   -0.6800
      4 C4         -3.7196    2.4800   51.2247 C.ar    1  ZINC000879023512    0.1800
      5 C5         -2.7571    2.9296   52.1187 C.ar    1  ZINC000879023512   -0.0900
      6 C6         -1.4707    3.1766   51.6802 C.ar    1  ZINC000879023512   -0.0700
      7 C7         -1.1412    2.9768   50.3516 C.ar    1  ZINC000879023512   -0.0700
      8 Br8         0.6209    3.3160   49.7549 Br      1  ZINC000879023512    0.0200
      9 C9         -2.0986    2.5287   49.4585 C.ar    1  ZINC000879023512    0.0000
     10 N10        -1.7423    2.3161   48.0377 N.pl3   1  ZINC000879023512    0.0200
     11 O11        -2.5846    1.9218   47.2511 O.2     1  ZINC000879023512   -0.1500
     12 O12        -0.6070    2.5355   47.6550 O.2     1  ZINC000879023512   -0.1300
     13 C13        -3.3845    2.2743   49.8928 C.ar    1  ZINC000879023512   -0.0500
     14 N14        -6.8116    0.7561   51.9571 N.am    1  ZINC000879023512   -0.6300
     15 C15        -7.5094   -0.5356   51.8778 C.3     1  ZINC000879023512    0.0900
     16 C16        -8.9240   -0.3287   52.4586 C.3     1  ZINC000879023512   -0.1200
     17 C17        -9.1393    1.2009   52.3124 C.3     1  ZINC000879023512   -0.1400
     18 H18        -9.4712    1.4543   51.3056 H       1  ZINC000879023512    0.1000
     19 C19       -10.1282    1.7180   53.3591 C.3     1  ZINC000879023512    0.0700
     20 F20        -9.6313    1.4555   54.6402 F       1  ZINC000879023512   -0.2100
     21 C21        -7.7109    1.7413   52.5847 C.3     1  ZINC000879023512    0.1300
     22 H22        -5.5451    2.9409   52.0694 H       1  ZINC000879023512    0.4200
     23 H23        -3.0141    3.0864   53.1559 H       1  ZINC000879023512    0.1600
     24 H24        -0.7216    3.5263   52.3752 H       1  ZINC000879023512    0.1600
     25 H25        -4.1311    1.9243   49.1954 H       1  ZINC000879023512    0.1800
     26 H26        -7.5786   -0.8564   50.8384 H       1  ZINC000879023512    0.0700
     27 H27        -6.9738   -1.2828   52.4635 H       1  ZINC000879023512    0.0700
     28 H28        -9.6638   -0.8795   51.8776 H       1  ZINC000879023512    0.0900
     29 H29        -8.9576   -0.6243   53.5071 H       1  ZINC000879023512    0.0900
     30 H30       -10.2606    2.7927   53.2340 H       1  ZINC000879023512    0.0800
     31 H31       -11.0876    1.2165   53.2316 H       1  ZINC000879023512    0.0800
     32 H32        -7.5264    1.8020   53.6573 H       1  ZINC000879023512    0.0800
     33 H33        -7.5803    2.7188   52.1205 H       1  ZINC000879023512    0.0900
@<TRIPOS>BOND
     1     1     2    2
     2     2     3   am
     3     2    14   am
     4     3     4    1
     5     3    22    1
     6     4    13   ar
     7     4     5   ar
     8     5     6   ar
     9     5    23    1
    10     6     7   ar
    11     6    24    1
    12     7     8    1
    13     7     9   ar
    14     9    10    1
    15     9    13   ar
    16    10    11    2
    17    10    12    2
    18    13    25    1
    19    14    21    1
    20    14    15    1
    21    15    16    1
    22    15    26    1
    23    15    27    1
    24    16    17    1
    25    16    28    1
    26    16    29    1
    27    17    18    1
    28    17    19    1
    29    17    21    1
    30    19    20    1
    31    19    30    1
    32    19    31    1
    33    21    32    1
    34    21    33    1
@<TRIPOS>SUBSTRUCTURE
     1 ZINC000879023512        1 TEMP              0 ****  ****    0 ROOT


##########                                Name:    ZINC000541315701
##########                DOCK_Rotatable_Bonds:                   4
##########                         Heavy_Atoms:                  25
##########                    Molecular_Weight:             422.709
##########                DOCK_Rotatable_Bonds:                   4
##########                       Formal_Charge:           0.0300003
##########                     HBond_Acceptors:                   6
##########                        HBond_Donors:                   0
##########                         Heavy_Atoms:                  25
##########                          Grid_Score:          -26.977797
##########                     Grid_vdw_energy:          -26.543695
##########                      Grid_es_energy:           -0.434101
##########           Internal_energy_repulsive:           17.829781

@<TRIPOS>MOLECULE
ZINC000541315701
 42 44 1 0 0
SMALL
USER_CHARGES


@<TRIPOS>ATOM
      1 C1         -3.6066    5.1096   54.1592 C.3     1  ZINC000541315701    0.0800
      2 N2         -2.6449    4.0850   53.7450 N.am    1  ZINC000541315701   -0.5700
      3 C3         -2.7967    3.4570   52.5623 C.2     1  ZINC000541315701    0.5400
      4 O4         -2.0006    2.6089   52.2194 O.2     1  ZINC000541315701   -0.5000
      5 C5         -3.9559    3.8088   51.6658 C.3     1  ZINC000541315701   -0.1100
      6 H6         -4.2712    4.8399   51.8258 H       1  ZINC000541315701    0.1300
      7 C7         -3.6017    3.5625   50.1810 C.3     1  ZINC000541315701   -0.1500
      8 C8         -4.0943    2.1579   49.9102 C.2     1  ZINC000541315701    0.5200
      9 O9         -3.7684    1.4787   48.9597 O.2     1  ZINC000541315701   -0.5200
     10 N10        -4.9454    1.7722   50.8764 N.am    1  ZINC000541315701   -0.6100
     11 C11        -5.6010    0.4630   50.9261 C.3     1  ZINC000541315701    0.0900
     12 C12        -5.1338    2.8316   51.8759 C.3     1  ZINC000541315701    0.1900
     13 H13        -5.1012    2.4117   52.8812 H       1  ZINC000541315701    0.1100
     14 C14        -6.4462    3.5362   51.6481 C.ar    1  ZINC000541315701   -0.0900
     15 C15        -7.3041    3.7587   52.7087 C.ar    1  ZINC000541315701   -0.1000
     16 C16        -8.5083    4.4055   52.5006 C.ar    1  ZINC000541315701   -0.1000
     17 C17        -8.8550    4.8294   51.2319 C.ar    1  ZINC000541315701   -0.1000
     18 C18        -7.9966    4.6070   50.1697 C.ar    1  ZINC000541315701   -0.0300
     19 Cl19       -8.4311    5.1398   48.5756 Cl      1  ZINC000541315701   -0.0600
     20 C20        -6.7894    3.9648   50.3795 C.ar    1  ZINC000541315701   -0.0900
     21 C21        -1.5724    3.7596   54.5746 C.ar    1  ZINC000541315701    0.3800
     22 N22        -1.7626    2.9528   55.6061 N.ar    1  ZINC000541315701   -0.4700
     23 C23        -0.7753    2.6192   56.4154 C.ar    1  ZINC000541315701    0.1300
     24 C24         0.5014    3.1042   56.2128 C.ar    1  ZINC000541315701   -0.1600
     25 C25         0.7439    3.9537   55.1418 C.ar    1  ZINC000541315701   -0.0400
     26 C26        -0.3108    4.2813   54.3071 C.ar    1  ZINC000541315701   -0.1300
     27 Br27       -0.0431    5.4332   52.8315 Br      1  ZINC000541315701   -0.0200
     28 H28        -4.5986    4.8462   53.7922 H       1  ZINC000541315701    0.0900
     29 H29        -3.6262    5.1709   55.2474 H       1  ZINC000541315701    0.0800
     30 H30        -3.3105    6.0739   53.7463 H       1  ZINC000541315701    0.0700
     31 H31        -4.1188    4.2780   49.5416 H       1  ZINC000541315701    0.1200
     32 H32        -2.5239    3.6244   50.0305 H       1  ZINC000541315701    0.1100
     33 H33        -5.2901   -0.1319   50.0674 H       1  ZINC000541315701    0.0900
     34 H34        -5.3182   -0.0503   51.8452 H       1  ZINC000541315701    0.0700
     35 H35        -6.6825    0.5972   50.9029 H       1  ZINC000541315701    0.0600
     36 H36        -7.0339    3.4269   53.7003 H       1  ZINC000541315701    0.1300
     37 H37        -9.1783    4.5791   53.3298 H       1  ZINC000541315701    0.1400
     38 H38        -9.7960    5.3341   51.0693 H       1  ZINC000541315701    0.1400
     39 H39        -6.1190    3.7910   49.5509 H       1  ZINC000541315701    0.1400
     40 H40        -0.9685    1.9583   57.2475 H       1  ZINC000541315701    0.1700
     41 H41         1.3031    2.8258   56.8807 H       1  ZINC000541315701    0.1500
     42 H42         1.7336    4.3465   54.9616 H       1  ZINC000541315701    0.1500
@<TRIPOS>BOND
     1     1     2    1
     2     1    28    1
     3     1    29    1
     4     1    30    1
     5     2     3   am
     6     2    21    1
     7     3     4    2
     8     3     5    1
     9     5     6    1
    10     5    12    1
    11     5     7    1
    12     7     8    1
    13     7    31    1
    14     7    32    1
    15     8     9    2
    16     8    10   am
    17    10    11    1
    18    10    12    1
    19    11    33    1
    20    11    34    1
    21    11    35    1
    22    12    13    1
    23    12    14    1
    24    14    20   ar
    25    14    15   ar
    26    15    16   ar
    27    15    36    1
    28    16    17   ar
    29    16    37    1
    30    17    18   ar
    31    17    38    1
    32    18    19    1
    33    18    20   ar
    34    20    39    1
    35    21    26   ar
    36    21    22   ar
    37    22    23   ar
    38    23    24   ar
    39    23    40    1
    40    24    25   ar
    41    24    41    1
    42    25    26   ar
    43    25    42    1
    44    26    27    1
@<TRIPOS>SUBSTRUCTURE
     1 ZINC000541315701        1 TEMP              0 ****  ****    0 ROOT


##########                                Name:    ZINC000840649129
##########                DOCK_Rotatable_Bonds:                   8
##########                         Heavy_Atoms:                  26
##########                    Molecular_Weight:             376.839
##########                DOCK_Rotatable_Bonds:                   8
##########                       Formal_Charge:          -0.0199998
##########                     HBond_Acceptors:                   7
##########                        HBond_Donors:                   3
##########                         Heavy_Atoms:                  26
##########                          Grid_Score:          -26.943426
##########                     Grid_vdw_energy:          -26.403809
##########                      Grid_es_energy:           -0.539618
##########           Internal_energy_repulsive:           17.253098

@<TRIPOS>MOLECULE
ZINC000840649129
 47 48 1 0 0
SMALL
USER_CHARGES


@<TRIPOS>ATOM
      1 C1        -10.9113    0.1131   54.7780 C.3     1  ZINC000840649129    0.0200
      2 O2        -11.2669    0.3823   56.1356 O.3     1  ZINC000840649129   -0.2900
      3 C3        -10.3034    0.1964   57.0735 C.ar    1  ZINC000840649129    0.1400
      4 C4         -9.4138    1.2183   57.3677 C.ar    1  ZINC000840649129   -0.1700
      5 C5         -8.4332    1.0312   58.3211 C.ar    1  ZINC000840649129   -0.1200
      6 C6         -8.3297   -0.1817   58.9939 C.ar    1  ZINC000840649129    0.1700
      7 N7         -7.3322   -0.3619   59.9590 N.pl3   1  ZINC000840649129   -0.8800
      8 C8         -9.2113   -1.2109   58.7116 C.ar    1  ZINC000840649129   -0.1000
      9 C9        -10.2092   -1.0272   57.7509 C.ar    1  ZINC000840649129   -0.1200
     10 C10       -11.1523   -2.1179   57.4447 C.2     1  ZINC000840649129    0.5100
     11 O11       -10.8166   -3.2746   57.6060 O.2     1  ZINC000840649129   -0.4800
     12 O12       -12.3867   -1.8322   56.9861 O.3     1  ZINC000840649129   -0.3200
     13 C13       -13.4165   -2.8341   57.1968 C.3     1  ZINC000840649129    0.0800
     14 H14       -12.9759   -3.7156   57.6625 H       1  ZINC000840649129    0.1200
     15 C15       -14.0238   -3.2166   55.8717 C.2     1  ZINC000840649129    0.5200
     16 O16       -13.6969   -2.6287   54.8625 O.2     1  ZINC000840649129   -0.4900
     17 N17       -14.9302   -4.2119   55.8081 N.am    1  ZINC000840649129   -0.6600
     18 C18       -15.4945   -4.5672   54.5773 C.ar    1  ZINC000840649129    0.1600
     19 C19       -15.0284   -5.6823   53.8946 C.ar    1  ZINC000840649129   -0.1400
     20 C20       -15.5875   -6.0308   52.6801 C.ar    1  ZINC000840649129   -0.0900
     21 C21       -16.6103   -5.2707   52.1442 C.ar    1  ZINC000840649129   -0.1300
     22 C22       -17.0773   -4.1586   52.8211 C.ar    1  ZINC000840649129   -0.0900
     23 C23       -16.5265   -3.8077   54.0389 C.ar    1  ZINC000840649129   -0.0700
     24 Cl24      -17.1133   -2.4121   54.8885 Cl      1  ZINC000840649129   -0.0700
     25 C25       -14.5034   -2.2640   58.1104 C.3     1  ZINC000840649129   -0.1100
     26 C26       -15.1324   -3.3973   58.9232 C.3     1  ZINC000840649129   -0.1600
     27 C27       -13.8838   -1.2376   59.0611 C.3     1  ZINC000840649129   -0.1500
     28 H28       -11.7700    0.3012   54.1333 H       1  ZINC000840649129    0.1000
     29 H29       -10.0865    0.7615   54.4830 H       1  ZINC000840649129    0.0600
     30 H30       -10.6066   -0.9291   54.6822 H       1  ZINC000840649129    0.0600
     31 H31        -9.4879    2.1628   56.8494 H       1  ZINC000840649129    0.1400
     32 H32        -7.7425    1.8307   58.5455 H       1  ZINC000840649129    0.1300
     33 H33        -6.7140    0.3586   60.1581 H       1  ZINC000840649129    0.4000
     34 H34        -7.2590   -1.2074   60.4289 H       1  ZINC000840649129    0.4000
     35 H35        -9.1303   -2.1521   59.2350 H       1  ZINC000840649129    0.1400
     36 H36       -15.1916   -4.6822   56.6153 H       1  ZINC000840649129    0.4200
     37 H37       -14.2291   -6.2767   54.3120 H       1  ZINC000840649129    0.1700
     38 H38       -15.2247   -6.8982   52.1486 H       1  ZINC000840649129    0.1300
     39 H39       -17.0454   -5.5456   51.1948 H       1  ZINC000840649129    0.1300
     40 H40       -17.8762   -3.5666   52.3997 H       1  ZINC000840649129    0.1400
     41 H41       -15.2707   -1.7817   57.5050 H       1  ZINC000840649129    0.0900
     42 H42       -14.3482   -3.9596   59.4301 H       1  ZINC000840649129    0.0700
     43 H43       -15.8150   -2.9786   59.6627 H       1  ZINC000840649129    0.0800
     44 H44       -15.6822   -4.0611   58.2560 H       1  ZINC000840649129    0.0600
     45 H45       -13.4356   -0.4301   58.4819 H       1  ZINC000840649129    0.0500
     46 H46       -14.6581   -0.8314   59.7119 H       1  ZINC000840649129    0.0600
     47 H47       -13.1163   -1.7198   59.6664 H       1  ZINC000840649129    0.0700
@<TRIPOS>BOND
     1     1     2    1
     2     1    28    1
     3     1    29    1
     4     1    30    1
     5     2     3    1
     6     3     9   ar
     7     3     4   ar
     8     4     5   ar
     9     4    31    1
    10     5     6   ar
    11     5    32    1
    12     6     7    1
    13     6     8   ar
    14     7    33    1
    15     7    34    1
    16     8     9   ar
    17     8    35    1
    18     9    10    1
    19    10    11    2
    20    10    12    1
    21    12    13    1
    22    13    14    1
    23    13    15    1
    24    13    25    1
    25    15    16    2
    26    15    17   am
    27    17    18    1
    28    17    36    1
    29    18    23   ar
    30    18    19   ar
    31    19    20   ar
    32    19    37    1
    33    20    21   ar
    34    20    38    1
    35    21    22   ar
    36    21    39    1
    37    22    23   ar
    38    22    40    1
    39    23    24    1
    40    25    26    1
    41    25    27    1
    42    25    41    1
    43    26    42    1
    44    26    43    1
    45    26    44    1
    46    27    45    1
    47    27    46    1
    48    27    47    1
@<TRIPOS>SUBSTRUCTURE
     1 ZINC000840649129        1 TEMP              0 ****  ****    0 ROOT


##########                                Name:    ZINC001179023006
##########                DOCK_Rotatable_Bonds:                   3
##########                         Heavy_Atoms:                  25
##########                    Molecular_Weight:             340.465
##########                DOCK_Rotatable_Bonds:                   3
##########                       Formal_Charge:          -0.0100005
##########                     HBond_Acceptors:                   4
##########                        HBond_Donors:                   1
##########                         Heavy_Atoms:                  25
##########                          Grid_Score:          -26.936417
##########                     Grid_vdw_energy:          -26.860752
##########                      Grid_es_energy:           -0.075664
##########           Internal_energy_repulsive:           30.263037

@<TRIPOS>MOLECULE
ZINC001179023006
 53 56 1 0 0
SMALL
USER_CHARGES


@<TRIPOS>ATOM
      1 C1        -10.0445    3.8499   56.1318 C.3     1  ZINC001179023006   -0.1500
      2 C2         -8.5994    3.5103   56.5019 C.3     1  ZINC001179023006   -0.1100
      3 C3         -8.4955    2.0212   56.8378 C.3     1  ZINC001179023006   -0.1100
      4 C4         -9.0165    1.1350   55.7360 C.2     1  ZINC001179023006    0.5400
      5 O5        -10.0750    0.5584   55.8708 O.2     1  ZINC001179023006   -0.5400
      6 N6         -8.3064    0.9833   54.6005 N.am    1  ZINC001179023006   -0.5900
      7 C7         -7.0256    1.6796   54.4191 C.3     1  ZINC001179023006    0.1000
      8 C8         -7.0640    2.4608   53.1077 C.3     1  ZINC001179023006   -0.1200
      9 C9         -7.4184    1.5057   51.9586 C.3     1  ZINC001179023006   -0.0500
     10 C10        -8.8186    0.9293   52.2155 C.3     1  ZINC001179023006   -0.1100
     11 C11        -8.8005    0.1229   53.5169 C.3     1  ZINC001179023006    0.0900
     12 C12        -7.4358    2.2846   50.6528 C.3     1  ZINC001179023006   -0.0800
     13 C13        -6.1280    2.9702   50.4001 C.ar    1  ZINC001179023006   -0.0700
     14 C14        -6.0630    4.3524   50.5445 C.ar    1  ZINC001179023006   -0.1100
     15 C15        -4.8580    5.0066   50.3798 C.ar    1  ZINC001179023006   -0.1100
     16 C16        -3.7151    4.2936   50.0702 C.ar    1  ZINC001179023006   -0.1200
     17 C17        -3.7856    2.9207   49.9132 C.ar    1  ZINC001179023006   -0.1000
     18 C18        -5.0004    2.2778   50.0717 C.ar    1  ZINC001179023006   -0.1100
     19 C19        -5.0887    0.7860   49.8739 C.3     1  ZINC001179023006    0.1400
     20 N20        -5.4552    0.1071   51.0969 N.am    1  ZINC001179023006   -0.7000
     21 C21        -6.4264    0.3862   51.9277 C.2     1  ZINC001179023006    0.5200
     22 O22        -6.5436   -0.4060   52.8385 O.2     1  ZINC001179023006   -0.5500
     23 C23        -9.0462    1.6635   58.2284 C.3     1  ZINC001179023006   -0.1200
     24 C24        -7.8511    0.7029   58.3661 C.3     1  ZINC001179023006   -0.1400
     25 C25        -7.1117    1.6031   57.3622 C.3     1  ZINC001179023006   -0.1300
     26 H26       -10.1110    4.9022   55.8554 H       1  ZINC001179023006    0.0600
     27 H27       -10.3587    3.2326   55.2901 H       1  ZINC001179023006    0.0500
     28 H28       -10.6934    3.6570   56.9861 H       1  ZINC001179023006    0.0600
     29 H29        -8.2979    4.0999   57.3677 H       1  ZINC001179023006    0.0700
     30 H30        -7.9453    3.7394   55.6606 H       1  ZINC001179023006    0.0700
     31 H31        -6.8636    2.3683   55.2482 H       1  ZINC001179023006    0.0900
     32 H32        -6.2156    0.9511   54.3834 H       1  ZINC001179023006    0.0800
     33 H33        -6.0881    2.9089   52.9208 H       1  ZINC001179023006    0.0800
     34 H34        -7.8180    3.2450   53.1750 H       1  ZINC001179023006    0.0800
     35 H35        -9.1021    0.2788   51.3881 H       1  ZINC001179023006    0.0800
     36 H36        -9.5383    1.7434   52.3016 H       1  ZINC001179023006    0.0800
     37 H37        -8.1412   -0.7377   53.4043 H       1  ZINC001179023006    0.1200
     38 H38        -9.8098   -0.2159   53.7508 H       1  ZINC001179023006    0.0800
     39 H39        -7.6418    1.5979   49.8317 H       1  ZINC001179023006    0.0800
     40 H40        -8.2272    3.0330   50.6956 H       1  ZINC001179023006    0.0900
     41 H41        -6.9540    4.9131   50.7856 H       1  ZINC001179023006    0.1200
     42 H42        -4.8086    6.0794   50.4930 H       1  ZINC001179023006    0.1200
     43 H43        -2.7716    4.8056   49.9517 H       1  ZINC001179023006    0.1300
     44 H44        -2.8988    2.3551   49.6685 H       1  ZINC001179023006    0.1300
     45 H45        -4.1212    0.4139   49.5367 H       1  ZINC001179023006    0.0900
     46 H46        -5.8365    0.5720   49.1102 H       1  ZINC001179023006    0.0800
     47 H47        -4.9073   -0.6577   51.3331 H       1  ZINC001179023006    0.4000
     48 H48        -9.0226    2.4937   58.9342 H       1  ZINC001179023006    0.0900
     49 H49       -10.0120    1.1590   58.1990 H       1  ZINC001179023006    0.0800
     50 H50        -8.0524   -0.2994   57.9879 H       1  ZINC001179023006    0.0800
     51 H51        -7.4039    0.6982   59.3601 H       1  ZINC001179023006    0.0700
     52 H52        -6.5179    1.0497   56.6346 H       1  ZINC001179023006    0.0700
     53 H53        -6.5581    2.4168   57.8308 H       1  ZINC001179023006    0.0900
@<TRIPOS>BOND
     1     1     2    1
     2     1    26    1
     3     1    27    1
     4     1    28    1
     5     2     3    1
     6     2    29    1
     7     2    30    1
     8     3    25    1
     9     3     4    1
    10     3    23    1
    11     4     5    2
    12     4     6   am
    13     6    11    1
    14     6     7    1
    15     7     8    1
    16     7    31    1
    17     7    32    1
    18     8     9    1
    19     8    33    1
    20     8    34    1
    21     9    21    1
    22     9    10    1
    23     9    12    1
    24    10    11    1
    25    10    35    1
    26    10    36    1
    27    11    37    1
    28    11    38    1
    29    12    13    1
    30    12    39    1
    31    12    40    1
    32    13    18   ar
    33    13    14   ar
    34    14    15   ar
    35    14    41    1
    36    15    16   ar
    37    15    42    1
    38    16    17   ar
    39    16    43    1
    40    17    18   ar
    41    17    44    1
    42    18    19    1
    43    19    20    1
    44    19    45    1
    45    19    46    1
    46    20    21   am
    47    20    47    1
    48    21    22    2
    49    23    24    1
    50    23    48    1
    51    23    49    1
    52    24    25    1
    53    24    50    1
    54    24    51    1
    55    25    52    1
    56    25    53    1
@<TRIPOS>SUBSTRUCTURE
     1 ZINC001179023006        1 TEMP              0 ****  ****    0 ROOT


##########                                Name:    ZINC000011498449
##########                DOCK_Rotatable_Bonds:                   5
##########                         Heavy_Atoms:                  21
##########                    Molecular_Weight:             331.198
##########                DOCK_Rotatable_Bonds:                   5
##########                       Formal_Charge:         1.30385e-07
##########                     HBond_Acceptors:                   7
##########                        HBond_Donors:                   1
##########                         Heavy_Atoms:                  21
##########                          Grid_Score:          -26.898256
##########                     Grid_vdw_energy:          -26.851442
##########                      Grid_es_energy:           -0.046814
##########           Internal_energy_repulsive:            8.157654

@<TRIPOS>MOLECULE
ZINC000011498449
 37 38 1 0 0
SMALL
USER_CHARGES


@<TRIPOS>ATOM
      1 C1        -10.6317    3.2341   53.2714 C.3     1  ZINC000011498449   -0.1500
      2 C2         -9.5494    2.1527   53.2892 C.3     1  ZINC000011498449    0.0700
      3 H3         -8.6623    2.5337   53.7951 H       1  ZINC000011498449    0.0600
      4 C4         -9.1908    1.7636   51.8504 C.3     1  ZINC000011498449    0.0800
      5 N5         -8.2922    0.5991   51.8948 N.am    1  ZINC000011498449   -0.6100
      6 C6         -7.1310    0.5924   51.2107 C.2     1  ZINC000011498449    0.5100
      7 O7         -6.4045   -0.3775   51.2588 O.2     1  ZINC000011498449   -0.5300
      8 C8         -6.7355    1.7900   50.3860 C.3     1  ZINC000011498449    0.1000
      9 N9         -5.3543    1.6304   49.9243 N.am    1  ZINC000011498449   -0.7200
     10 C10        -4.6434    2.7089   49.5396 C.2     1  ZINC000011498449    0.5600
     11 O11        -5.1478    3.8144   49.5771 O.2     1  ZINC000011498449   -0.5100
     12 C12        -3.2514    2.5477   49.0725 C.ar    1  ZINC000011498449   -0.1300
     13 C13        -2.9893    2.2905   47.7253 C.ar    1  ZINC000011498449   -0.0600
     14 C14        -1.6879    2.1415   47.2952 C.ar    1  ZINC000011498449   -0.1100
     15 C15        -0.6405    2.2463   48.1959 C.ar    1  ZINC000011498449    0.0000
     16 Cl16        0.9950    2.0577   47.6452 Cl      1  ZINC000011498449   -0.0400
     17 C17        -0.8925    2.5012   49.5333 C.ar    1  ZINC000011498449   -0.1100
     18 C18        -2.1907    2.6578   49.9761 C.ar    1  ZINC000011498449    0.0300
     19 Cl19       -2.5056    2.9774   51.6530 Cl      1  ZINC000011498449   -0.0100
     20 C20        -8.6986   -0.5575   52.7088 C.3     1  ZINC000011498449    0.0700
     21 C21        -9.0812   -0.0553   54.1056 C.3     1  ZINC000011498449    0.0500
     22 O22       -10.0366    1.0009   53.9818 O.3     1  ZINC000011498449   -0.3700
     23 H23       -10.8875    3.5090   54.2947 H       1  ZINC000011498449    0.0700
     24 H24       -10.2602    4.1111   52.7416 H       1  ZINC000011498449    0.0800
     25 H25       -11.5184    2.8524   52.7653 H       1  ZINC000011498449    0.0700
     26 H26       -10.0976    1.5068   51.3027 H       1  ZINC000011498449    0.0800
     27 H27        -8.6881    2.5967   51.3592 H       1  ZINC000011498449    0.1000
     28 H28        -7.3989    1.8736   49.5251 H       1  ZINC000011498449    0.1000
     29 H29        -6.8135    2.6915   50.9936 H       1  ZINC000011498449    0.1000
     30 H30        -4.9514    0.7484   49.8955 H       1  ZINC000011498449    0.4100
     31 H31        -3.8044    2.2081   47.0217 H       1  ZINC000011498449    0.1500
     32 H32        -1.4844    1.9422   46.2534 H       1  ZINC000011498449    0.1500
     33 H33        -0.0718    2.5817   50.2306 H       1  ZINC000011498449    0.1500
     34 H34        -9.5558   -1.0480   52.2474 H       1  ZINC000011498449    0.0900
     35 H35        -7.8699   -1.2615   52.7859 H       1  ZINC000011498449    0.1000
     36 H36        -9.5154   -0.8734   54.6804 H       1  ZINC000011498449    0.1100
     37 H37        -8.1922    0.3168   54.6148 H       1  ZINC000011498449    0.0600
@<TRIPOS>BOND
     1     1     2    1
     2     1    23    1
     3     1    24    1
     4     1    25    1
     5     2     3    1
     6     2    22    1
     7     2     4    1
     8     4     5    1
     9     4    26    1
    10     4    27    1
    11     5     6   am
    12     5    20    1
    13     6     7    2
    14     6     8    1
    15     8     9    1
    16     8    28    1
    17     8    29    1
    18     9    10   am
    19     9    30    1
    20    10    11    2
    21    10    12    1
    22    12    18   ar
    23    12    13   ar
    24    13    14   ar
    25    13    31    1
    26    14    15   ar
    27    14    32    1
    28    15    16    1
    29    15    17   ar
    30    17    18   ar
    31    17    33    1
    32    18    19    1
    33    20    21    1
    34    20    34    1
    35    20    35    1
    36    21    22    1
    37    21    36    1
    38    21    37    1
@<TRIPOS>SUBSTRUCTURE
     1 ZINC000011498449        1 TEMP              0 ****  ****    0 ROOT


##########                                Name:    ZINC000521663393
##########                DOCK_Rotatable_Bonds:                   5
##########                         Heavy_Atoms:                  27
##########                    Molecular_Weight:              386.49
##########                DOCK_Rotatable_Bonds:                   5
##########                       Formal_Charge:               -0.02
##########                     HBond_Acceptors:                   6
##########                        HBond_Donors:                   1
##########                         Heavy_Atoms:                  27
##########                          Grid_Score:          -26.878153
##########                     Grid_vdw_energy:          -25.948074
##########                      Grid_es_energy:           -0.930079
##########           Internal_energy_repulsive:           17.721554

@<TRIPOS>MOLECULE
ZINC000521663393
 50 53 1 0 0
SMALL
USER_CHARGES


@<TRIPOS>ATOM
      1 C1          1.0247    4.6573   52.1566 C.3     1  ZINC000521663393   -0.1500
      2 C2          0.4817    3.4492   51.3908 C.3     1  ZINC000521663393    0.0800
      3 H3          0.3692    2.5919   52.0545 H       1  ZINC000521663393    0.0900
      4 O4          1.3351    3.1248   50.2801 O.3     1  ZINC000521663393   -0.2900
      5 C5          0.5755    2.6519   49.2541 C.ar    1  ZINC000521663393    0.1400
      6 C6          0.9457    1.8995   48.1429 C.ar    1  ZINC000521663393   -0.1800
      7 C7         -0.0007    1.5308   47.2059 C.ar    1  ZINC000521663393    0.1400
      8 F8          0.3668    0.8012   46.1299 F       1  ZINC000521663393   -0.1300
      9 C9         -1.3242    1.9058   47.3650 C.ar    1  ZINC000521663393   -0.1800
     10 C10        -1.6989    2.6497   48.4697 C.ar    1  ZINC000521663393   -0.0200
     11 C11        -0.7571    3.0148   49.4058 C.ar    1  ZINC000521663393   -0.2000
     12 C12        -0.8625    3.7930   50.7066 C.3     1  ZINC000521663393    0.1700
     13 H13        -0.9402    4.8631   50.5151 H       1  ZINC000521663393    0.1200
     14 N14        -1.9961    3.3234   51.5071 N.am    1  ZINC000521663393   -0.7200
     15 C15        -3.1860    3.9511   51.4235 C.2     1  ZINC000521663393    0.5300
     16 O16        -3.3186    4.9035   50.6845 O.2     1  ZINC000521663393   -0.5000
     17 C17        -4.3516    3.4692   52.2483 C.3     1  ZINC000521663393    0.1200
     18 H18        -3.9819    2.9142   53.1105 H       1  ZINC000521663393    0.0700
     19 C19        -5.1564    4.6527   52.7202 C.ar    1  ZINC000521663393   -0.0900
     20 C20        -4.8866    5.2266   53.9485 C.ar    1  ZINC000521663393   -0.0900
     21 C21        -5.6248    6.3121   54.3813 C.ar    1  ZINC000521663393   -0.1200
     22 C22        -6.6326    6.8242   53.5857 C.ar    1  ZINC000521663393   -0.1100
     23 C23        -6.9017    6.2510   52.3569 C.ar    1  ZINC000521663393   -0.1200
     24 C24        -6.1607    5.1680   51.9222 C.ar    1  ZINC000521663393   -0.1100
     25 N25        -5.2016    2.5938   51.4303 N.3     1  ZINC000521663393   -0.5300
     26 C26        -6.3599    2.1241   52.1938 C.3     1  ZINC000521663393    0.0500
     27 C27        -7.4362    1.5995   51.2372 C.3     1  ZINC000521663393   -0.0700
     28 S28        -6.7530    0.1857   50.3191 S.3     1  ZINC000521663393   -0.2700
     29 C29        -5.1905    0.8686   49.6860 C.3     1  ZINC000521663393   -0.0700
     30 C30        -4.4234    1.4938   50.8562 C.3     1  ZINC000521663393    0.0600
     31 H31         0.3278    4.9278   52.9499 H       1  ZINC000521663393    0.0800
     32 H32         1.9917    4.4066   52.5924 H       1  ZINC000521663393    0.0800
     33 H33         1.1413    5.4983   51.4731 H       1  ZINC000521663393    0.0700
     34 H34         1.9761    1.6032   48.0125 H       1  ZINC000521663393    0.1400
     35 H35        -2.0611    1.6190   46.6293 H       1  ZINC000521663393    0.1400
     36 H36        -2.7300    2.9440   48.5980 H       1  ZINC000521663393    0.1300
     37 H37        -1.8904    2.5610   52.0972 H       1  ZINC000521663393    0.4000
     38 H38        -4.0993    4.8265   54.5701 H       1  ZINC000521663393    0.1300
     39 H39        -5.4145    6.7600   55.3414 H       1  ZINC000521663393    0.1300
     40 H40        -7.2097    7.6720   53.9241 H       1  ZINC000521663393    0.1200
     41 H41        -7.6893    6.6508   51.7354 H       1  ZINC000521663393    0.1300
     42 H42        -6.3710    4.7201   50.9622 H       1  ZINC000521663393    0.1200
     43 H43        -6.0504    1.3231   52.8652 H       1  ZINC000521663393    0.0500
     44 H44        -6.7664    2.9488   52.7793 H       1  ZINC000521663393    0.1000
     45 H45        -8.3081    1.2791   51.8073 H       1  ZINC000521663393    0.1100
     46 H46        -7.7205    2.3868   50.5390 H       1  ZINC000521663393    0.0900
     47 H47        -4.5951    0.0705   49.2425 H       1  ZINC000521663393    0.1100
     48 H48        -5.4012    1.6317   48.9369 H       1  ZINC000521663393    0.1000
     49 H49        -3.4664    1.8747   50.4997 H       1  ZINC000521663393    0.0800
     50 H50        -4.2485    0.7366   51.6204 H       1  ZINC000521663393    0.0500
@<TRIPOS>BOND
     1     1     2    1
     2     1    31    1
     3     1    32    1
     4     1    33    1
     5     2     3    1
     6     2    12    1
     7     2     4    1
     8     4     5    1
     9     5    11   ar
    10     5     6   ar
    11     6     7   ar
    12     6    34    1
    13     7     8    1
    14     7     9   ar
    15     9    10   ar
    16     9    35    1
    17    10    11   ar
    18    10    36    1
    19    11    12    1
    20    12    13    1
    21    12    14    1
    22    14    15   am
    23    14    37    1
    24    15    16    2
    25    15    17    1
    26    17    18    1
    27    17    19    1
    28    17    25    1
    29    19    24   ar
    30    19    20   ar
    31    20    21   ar
    32    20    38    1
    33    21    22   ar
    34    21    39    1
    35    22    23   ar
    36    22    40    1
    37    23    24   ar
    38    23    41    1
    39    24    42    1
    40    25    30    1
    41    25    26    1
    42    26    27    1
    43    26    43    1
    44    26    44    1
    45    27    28    1
    46    27    45    1
    47    27    46    1
    48    28    29    1
    49    29    30    1
    50    29    47    1
    51    29    48    1
    52    30    49    1
    53    30    50    1
@<TRIPOS>SUBSTRUCTURE
     1 ZINC000521663393        1 TEMP              0 ****  ****    0 ROOT


##########                                Name:    ZINC000252489163
##########                DOCK_Rotatable_Bonds:                   6
##########                         Heavy_Atoms:                  25
##########                    Molecular_Weight:             379.403
##########                DOCK_Rotatable_Bonds:                   6
##########                       Formal_Charge:          0.00999963
##########                     HBond_Acceptors:                  10
##########                        HBond_Donors:                   2
##########                         Heavy_Atoms:                  25
##########                          Grid_Score:          -26.876863
##########                     Grid_vdw_energy:          -26.246326
##########                      Grid_es_energy:           -0.630537
##########           Internal_energy_repulsive:           11.834093

@<TRIPOS>MOLECULE
ZINC000252489163
 45 46 1 0 0
SMALL
USER_CHARGES


@<TRIPOS>ATOM
      1 C1         -6.2403    0.0155   50.6206 C.3     1  ZINC000252489163   -0.1100
      2 C2         -5.6892    1.3818   50.3031 C.ar    1  ZINC000252489163   -0.0600
      3 C3         -4.3602    1.5260   49.9571 C.ar    1  ZINC000252489163   -0.1300
      4 C4         -3.8530    2.7853   49.6642 C.ar    1  ZINC000252489163    0.1700
      5 N5         -2.5067    2.9348   49.3126 N.am    1  ZINC000252489163   -0.6800
      6 C6         -2.0684    2.4886   48.1187 C.2     1  ZINC000252489163    0.7100
      7 O7         -2.8427    1.9562   47.3472 O.2     1  ZINC000252489163   -0.5500
      8 N8         -0.7718    2.6326   47.7802 N.am    1  ZINC000252489163   -0.6200
      9 C9         -0.2790    2.1513   46.4824 C.3     1  ZINC000252489163    0.1000
     10 C10         0.9175    1.2252   46.7220 C.3     1  ZINC000252489163   -0.1400
     11 C11         1.9667    1.9603   47.5593 C.3     1  ZINC000252489163   -0.1300
     12 C12         1.3672    2.3357   48.9164 C.3     1  ZINC000252489163    0.1400
     13 H13         1.0321    1.4335   49.4282 H       1  ZINC000252489163    0.0900
     14 N14         2.3819    3.0108   49.7294 N.am    1  ZINC000252489163   -1.1100
     15 S15         2.4245    2.7710   51.3674 S.o2    1  ZINC000252489163    2.6100
     16 C16         0.8049    3.3430   51.9509 C.3     1  ZINC000252489163   -0.6700
     17 O17         2.5376    1.3620   51.5125 O.2     1  ZINC000252489163   -0.9500
     18 O18         3.4534    3.6393   51.8220 O.2     1  ZINC000252489163   -0.9500
     19 C19         0.1745    3.2794   48.6993 C.3     1  ZINC000252489163    0.1100
     20 C20        -4.6847    3.8957   49.7204 C.ar    1  ZINC000252489163   -0.1000
     21 C21        -6.0133    3.7448   50.0673 C.ar    1  ZINC000252489163   -0.1600
     22 C22        -6.9168    4.9494   50.1287 C.3     1  ZINC000252489163    0.5100
     23 F23        -7.4236    5.2176   48.8526 F       1  ZINC000252489163   -0.1700
     24 F24        -7.9755    4.6940   51.0068 F       1  ZINC000252489163   -0.1800
     25 F25        -6.1899    6.0548   50.5836 F       1  ZINC000252489163   -0.1800
     26 C26        -6.5163    2.4890   50.3532 C.ar    1  ZINC000252489163   -0.0900
     27 H27        -6.6122   -0.4476   49.7066 H       1  ZINC000252489163    0.0800
     28 H28        -5.4517   -0.6042   51.0471 H       1  ZINC000252489163    0.0700
     29 H29        -7.0558    0.1104   51.3376 H       1  ZINC000252489163    0.0700
     30 H30        -3.7156    0.6604   49.9144 H       1  ZINC000252489163    0.1300
     31 H31        -1.8890    3.3595   49.9281 H       1  ZINC000252489163    0.4100
     32 H32        -1.0701    1.6016   45.9722 H       1  ZINC000252489163    0.0800
     33 H33         0.0316    2.9993   45.8722 H       1  ZINC000252489163    0.0800
     34 H34         0.5866    0.3336   47.2544 H       1  ZINC000252489163    0.0700
     35 H35         1.3524    0.9376   45.7647 H       1  ZINC000252489163    0.0900
     36 H36         2.8299    1.3121   47.7104 H       1  ZINC000252489163    0.0800
     37 H37         2.2790    2.8649   47.0376 H       1  ZINC000252489163    0.0800
     38 H38         3.0288    3.5981   49.3081 H       1  ZINC000252489163    0.4200
     39 H39         0.0193    2.7570   51.4741 H       1  ZINC000252489163    0.1300
     40 H40         0.7443    3.2204   53.0323 H       1  ZINC000252489163    0.1300
     41 H41         0.6781    4.3954   51.6969 H       1  ZINC000252489163    0.1300
     42 H42         0.5247    4.2183   48.2707 H       1  ZINC000252489163    0.0800
     43 H43        -0.3176    3.4716   49.6528 H       1  ZINC000252489163    0.1100
     44 H44        -4.2933    4.8763   49.4936 H       1  ZINC000252489163    0.1800
     45 H45        -7.5555    2.3736   50.6237 H       1  ZINC000252489163    0.1300
@<TRIPOS>BOND
     1     1     2    1
     2     1    27    1
     3     1    28    1
     4     1    29    1
     5     2    26   ar
     6     2     3   ar
     7     3     4   ar
     8     3    30    1
     9     4     5    1
    10     4    20   ar
    11     5     6   am
    12     5    31    1
    13     6     7    2
    14     6     8   am
    15     8    19    1
    16     8     9    1
    17     9    10    1
    18     9    32    1
    19     9    33    1
    20    10    11    1
    21    10    34    1
    22    10    35    1
    23    11    12    1
    24    11    36    1
    25    11    37    1
    26    12    13    1
    27    12    14    1
    28    12    19    1
    29    14    15   am
    30    14    38    1
    31    15    16    1
    32    15    17    2
    33    15    18    2
    34    16    39    1
    35    16    40    1
    36    16    41    1
    37    19    42    1
    38    19    43    1
    39    20    21   ar
    40    20    44    1
    41    21    22    1
    42    21    26   ar
    43    22    23    1
    44    22    24    1
    45    22    25    1
    46    26    45    1
@<TRIPOS>SUBSTRUCTURE
     1 ZINC000252489163        1 TEMP              0 ****  ****    0 ROOT


##########                                Name:    ZINC000899027326
##########                DOCK_Rotatable_Bonds:                   5
##########                         Heavy_Atoms:                  22
##########                    Molecular_Weight:             346.169
##########                DOCK_Rotatable_Bonds:                   5
##########                       Formal_Charge:           0.0300005
##########                     HBond_Acceptors:                   9
##########                        HBond_Donors:                   1
##########                         Heavy_Atoms:                  22
##########                          Grid_Score:          -26.766800
##########                     Grid_vdw_energy:          -26.684549
##########                      Grid_es_energy:           -0.082250
##########           Internal_energy_repulsive:            7.063295

@<TRIPOS>MOLECULE
ZINC000899027326
 35 36 1 0 0
SMALL
USER_CHARGES


@<TRIPOS>ATOM
      1 C1         -5.0818    4.4890   50.6817 C.3     1  ZINC000899027326   -0.1500
      2 C2         -4.4811    3.2039   51.2552 C.3     1  ZINC000899027326    0.1100
      3 H3         -3.4648    3.3809   51.6072 H       1  ZINC000899027326    0.1400
      4 C4         -5.3474    2.6642   52.3760 C.2     1  ZINC000899027326    0.5300
      5 O5         -5.6168    3.2134   53.4226 O.2     1  ZINC000899027326   -0.4500
      6 N6         -5.7563    1.4471   51.9665 N.am    1  ZINC000899027326   -0.3700
      7 N7         -6.5849    0.6019   52.7161 N.am    1  ZINC000899027326   -0.5000
      8 C8         -7.8864    0.9096   52.8838 C.2     1  ZINC000899027326    0.5200
      9 O9         -8.3404    1.9174   52.3848 O.2     1  ZINC000899027326   -0.4800
     10 C10        -8.7773    0.0014   53.6916 C.3     1  ZINC000899027326    0.0500
     11 O11        -8.7798    0.4267   55.0558 O.3     1  ZINC000899027326   -0.2700
     12 C12        -9.5053   -0.3167   55.9327 C.ar    1  ZINC000899027326    0.1400
     13 C13       -10.3737   -1.2910   55.4646 C.ar    1  ZINC000899027326   -0.1900
     14 C14       -11.1105   -2.0458   56.3574 C.ar    1  ZINC000899027326   -0.0600
     15 C15       -10.9826   -1.8301   57.7178 C.ar    1  ZINC000899027326   -0.0600
     16 Cl16      -11.9091   -2.7804   58.8369 Cl      1  ZINC000899027326   -0.0500
     17 C17       -10.1166   -0.8584   58.1880 C.ar    1  ZINC000899027326   -0.0600
     18 C18        -9.3736   -0.1053   57.2987 C.ar    1  ZINC000899027326   -0.0500
     19 Cl19       -8.2873    1.1138   57.8884 Cl      1  ZINC000899027326   -0.0300
     20 C20        -5.2738    1.1460   50.7554 C.2     1  ZINC000899027326    0.7000
     21 O21        -5.5045    0.1025   50.1767 O.2     1  ZINC000899027326   -0.5200
     22 N22        -4.5011    2.1283   50.2488 N.am    1  ZINC000899027326   -0.6200
     23 C23        -3.8205    2.1256   48.9516 C.3     1  ZINC000899027326    0.1200
     24 H24        -6.1009    4.2957   50.3467 H       1  ZINC000899027326    0.0700
     25 H25        -5.0925    5.2602   51.4518 H       1  ZINC000899027326    0.0900
     26 H26        -4.4798    4.8264   49.8380 H       1  ZINC000899027326    0.0900
     27 H27        -6.2221   -0.2048   53.1142 H       1  ZINC000899027326    0.4300
     28 H28        -9.7922    0.0424   53.2962 H       1  ZINC000899027326    0.1100
     29 H29        -8.4047   -1.0212   53.6305 H       1  ZINC000899027326    0.1100
     30 H30       -10.4744   -1.4597   54.4026 H       1  ZINC000899027326    0.1500
     31 H31       -11.7872   -2.8043   55.9927 H       1  ZINC000899027326    0.1500
     32 H32       -10.0181   -0.6915   59.2505 H       1  ZINC000899027326    0.1500
     33 H33        -4.0298    1.1898   48.4334 H       1  ZINC000899027326    0.0900
     34 H34        -4.1794    2.9615   48.3512 H       1  ZINC000899027326    0.0700
     35 H35        -2.7458    2.2235   49.1049 H       1  ZINC000899027326    0.0700
@<TRIPOS>BOND
     1     1     2    1
     2     1    24    1
     3     1    25    1
     4     1    26    1
     5     2     3    1
     6     2    22    1
     7     2     4    1
     8     4     5    2
     9     4     6   am
    10     6     7    1
    11     6    20   am
    12     7     8   am
    13     7    27    1
    14     8     9    2
    15     8    10    1
    16    10    11    1
    17    10    28    1
    18    10    29    1
    19    11    12    1
    20    12    18   ar
    21    12    13   ar
    22    13    14   ar
    23    13    30    1
    24    14    15   ar
    25    14    31    1
    26    15    16    1
    27    15    17   ar
    28    17    18   ar
    29    17    32    1
    30    18    19    1
    31    20    21    2
    32    20    22   am
    33    22    23    1
    34    23    33    1
    35    23    34    1
    36    23    35    1
@<TRIPOS>SUBSTRUCTURE
     1 ZINC000899027326        1 TEMP              0 ****  ****    0 ROOT


##########                                Name:    ZINC000560467340
##########                DOCK_Rotatable_Bonds:                   7
##########                         Heavy_Atoms:                  24
##########                    Molecular_Weight:             369.481
##########                DOCK_Rotatable_Bonds:                   7
##########                       Formal_Charge:          -0.0199997
##########                     HBond_Acceptors:                   7
##########                        HBond_Donors:                   2
##########                         Heavy_Atoms:                  24
##########                          Grid_Score:          -26.650492
##########                     Grid_vdw_energy:          -25.815449
##########                      Grid_es_energy:           -0.835042
##########           Internal_energy_repulsive:           19.057558

@<TRIPOS>MOLECULE
ZINC000560467340
 44 46 1 0 0
SMALL
USER_CHARGES


@<TRIPOS>ATOM
      1 O1         -5.5045    5.9613   54.1653 O.2     1  ZINC000560467340   -0.9600
      2 S2         -5.4399    4.5537   54.3491 S.o2    1  ZINC000560467340    2.7100
      3 O3         -6.0094    3.8890   55.4686 O.2     1  ZINC000560467340   -0.9500
      4 N4         -6.1255    3.8745   53.0034 N.am    1  ZINC000560467340   -1.0900
      5 C5         -6.0877    2.4220   52.8157 C.3     1  ZINC000560467340    0.1400
      6 C6         -7.3225    1.9769   52.0296 C.3     1  ZINC000560467340   -0.0500
      7 C7         -7.2806    2.5584   50.6151 C.3     1  ZINC000560467340   -0.0700
      8 C8         -5.8716    2.4883   50.0848 C.ar    1  ZINC000560467340   -0.0900
      9 C9         -5.3533    1.2797   49.6587 C.ar    1  ZINC000560467340   -0.0900
     10 C10        -4.0614    1.2143   49.1722 C.ar    1  ZINC000560467340   -0.1500
     11 C11        -3.2864    2.3601   49.1112 C.ar    1  ZINC000560467340    0.1000
     12 F12        -2.0236    2.2974   48.6354 F       1  ZINC000560467340   -0.1400
     13 C13        -3.8068    3.5701   49.5378 C.ar    1  ZINC000560467340   -0.1500
     14 C14        -5.1006    3.6339   50.0195 C.ar    1  ZINC000560467340   -0.0900
     15 C15        -8.6043    2.4377   52.7538 C.3     1  ZINC000560467340   -0.1300
     16 C16        -9.6022    1.2729   52.5379 C.3     1  ZINC000560467340   -0.1200
     17 C17        -8.6971    0.0214   52.6544 C.3     1  ZINC000560467340   -0.1600
     18 C18        -7.3815    0.4406   51.9665 C.3     1  ZINC000560467340    0.1100
     19 H19        -7.3812    0.1094   50.9280 H       1  ZINC000560467340    0.0600
     20 O20        -6.2657   -0.1220   52.6597 O.3     1  ZINC000560467340   -0.5500
     21 C21        -3.7302    4.1280   54.3346 C.2     1  ZINC000560467340   -0.6900
     22 C22        -3.0292    4.0120   53.2057 C.2     1  ZINC000560467340   -0.1000
     23 S23        -1.3676    3.5779   53.5849 S.3     1  ZINC000560467340    0.1500
     24 C24        -1.7288    3.5784   55.3063 C.2     1  ZINC000560467340   -0.2200
     25 C25        -3.0110    3.8945   55.4941 C.2     1  ZINC000560467340   -0.0700
     26 H26        -6.5522    4.4383   52.3394 H       1  ZINC000560467340    0.4200
     27 H27        -5.1880    2.1504   52.2635 H       1  ZINC000560467340    0.0600
     28 H28        -6.0793    1.9301   53.7884 H       1  ZINC000560467340    0.0800
     29 H29        -7.9419    1.9840   49.9664 H       1  ZINC000560467340    0.0800
     30 H30        -7.6082    3.5977   50.6397 H       1  ZINC000560467340    0.0800
     31 H31        -5.9580    0.3862   49.7064 H       1  ZINC000560467340    0.1300
     32 H32        -3.6564    0.2698   48.8401 H       1  ZINC000560467340    0.1400
     33 H33        -3.2031    4.4644   49.4910 H       1  ZINC000560467340    0.1400
     34 H34        -5.5069    4.5778   50.3520 H       1  ZINC000560467340    0.1300
     35 H35        -8.4109    2.5822   53.8168 H       1  ZINC000560467340    0.0700
     36 H36        -8.9864    3.3553   52.3064 H       1  ZINC000560467340    0.0800
     37 H37       -10.3669    1.2704   53.3146 H       1  ZINC000560467340    0.0700
     38 H38       -10.0555    1.3310   51.5483 H       1  ZINC000560467340    0.0700
     39 H39        -8.5188   -0.2242   53.7012 H       1  ZINC000560467340    0.0800
     40 H40        -9.1469   -0.8244   52.1344 H       1  ZINC000560467340    0.0700
     41 H41        -6.0817    0.2948   53.5126 H       1  ZINC000560467340    0.3800
     42 H42        -3.4221    4.1614   52.2108 H       1  ZINC000560467340    0.1800
     43 H43        -1.0198    3.3607   56.0913 H       1  ZINC000560467340    0.1700
     44 H44        -3.4564    3.9557   56.4761 H       1  ZINC000560467340    0.1500
@<TRIPOS>BOND
     1     1     2    2
     2     2     3    2
     3     2     4   am
     4     2    21    1
     5     4     5    1
     6     4    26    1
     7     5     6    1
     8     5    27    1
     9     5    28    1
    10     6    18    1
    11     6     7    1
    12     6    15    1
    13     7     8    1
    14     7    29    1
    15     7    30    1
    16     8    14   ar
    17     8     9   ar
    18     9    10   ar
    19     9    31    1
    20    10    11   ar
    21    10    32    1
    22    11    12    1
    23    11    13   ar
    24    13    14   ar
    25    13    33    1
    26    14    34    1
    27    15    16    1
    28    15    35    1
    29    15    36    1
    30    16    17    1
    31    16    37    1
    32    16    38    1
    33    17    18    1
    34    17    39    1
    35    17    40    1
    36    18    19    1
    37    18    20    1
    38    20    41    1
    39    21    25    1
    40    21    22    2
    41    22    23    1
    42    22    42    1
    43    23    24    1
    44    24    25    2
    45    24    43    1
    46    25    44    1
@<TRIPOS>SUBSTRUCTURE
     1 ZINC000560467340        1 TEMP              0 ****  ****    0 ROOT


##########                                Name:    ZINC000364058410
##########                DOCK_Rotatable_Bonds:                   5
##########                         Heavy_Atoms:                  25
##########                    Molecular_Weight:             358.464
##########                DOCK_Rotatable_Bonds:                   5
##########                       Formal_Charge:           0.0100002
##########                     HBond_Acceptors:                   7
##########                        HBond_Donors:                   0
##########                         Heavy_Atoms:                  25
##########                          Grid_Score:          -26.603849
##########                     Grid_vdw_energy:          -28.049498
##########                      Grid_es_energy:            1.445648
##########           Internal_energy_repulsive:           66.155983

@<TRIPOS>MOLECULE
ZINC000364058410
 47 50 1 0 0
SMALL
USER_CHARGES


@<TRIPOS>ATOM
      1 C1         -1.3084    3.9916   52.4935 C.3     1  ZINC000364058410   -0.0700
      2 C2         -2.6444    3.5060   51.9933 C.2     1  ZINC000364058410   -0.2500
      3 C3         -2.8523    2.7264   50.9070 C.2     1  ZINC000364058410    0.0800
      4 N4         -4.1810    2.5159   50.8000 N.pl3   1  ZINC000364058410   -0.3600
      5 C5         -4.8473    1.7237   49.7634 C.3     1  ZINC000364058410    0.1300
      6 C6         -5.0797    0.2544   50.1597 C.3     1  ZINC000364058410    0.1100
      7 N7         -6.3830    0.7066   50.6842 N.am    1  ZINC000364058410   -0.6500
      8 C8         -7.2337    0.2481   51.6236 C.2     1  ZINC000364058410    0.5600
      9 O9         -6.9668   -0.7597   52.2432 O.2     1  ZINC000364058410   -0.5000
     10 C10        -8.5164    0.9876   51.9039 C.3     1  ZINC000364058410    0.1400
     11 H11        -8.7407    1.6579   51.0741 H       1  ZINC000364058410    0.0900
     12 C12        -9.6607   -0.0162   52.0768 C.3     1  ZINC000364058410   -0.1200
     13 C13       -10.9291    0.7296   52.4978 C.3     1  ZINC000364058410   -0.1200
     14 C14       -10.6913    1.4269   53.8392 C.3     1  ZINC000364058410   -0.1400
     15 C15        -9.5588    2.4471   53.6862 C.3     1  ZINC000364058410    0.1000
     16 N16        -8.3756    1.7664   53.1418 N.am    1  ZINC000364058410   -0.6000
     17 C17        -7.1856    1.8508   53.7690 C.2     1  ZINC000364058410    0.5900
     18 O18        -6.2132    1.2824   53.3079 O.2     1  ZINC000364058410   -0.4900
     19 C19        -7.0626    2.6270   55.0063 C.2     1  ZINC000364058410   -0.2600
     20 C20        -7.0829    3.9906   55.0918 C.2     1  ZINC000364058410   -0.0600
     21 C21        -6.9475    4.4567   56.3780 C.2     1  ZINC000364058410   -0.1400
     22 C22        -6.8207    3.5095   57.3147 C.2     1  ZINC000364058410   -0.2400
     23 S23        -6.8729    1.9525   56.6189 S.3     1  ZINC000364058410    0.2100
     24 C24        -6.3805    1.8626   49.7668 C.3     1  ZINC000364058410    0.0900
     25 N25        -4.8105    3.1884   51.8554 N.2     1  ZINC000364058410   -0.3000
     26 C26        -3.8881    3.7764   52.5734 C.2     1  ZINC000364058410    0.0500
     27 H27        -0.8981    3.2667   53.1964 H       1  ZINC000364058410    0.0600
     28 H28        -0.6257    4.1081   51.6518 H       1  ZINC000364058410    0.0600
     29 H29        -1.4349    4.9516   52.9941 H       1  ZINC000364058410    0.0600
     30 H30        -2.0912    2.3416   50.2444 H       1  ZINC000364058410    0.1700
     31 H31        -4.3975    1.8484   48.7784 H       1  ZINC000364058410    0.1300
     32 H32        -5.1594   -0.4227   49.3093 H       1  ZINC000364058410    0.1100
     33 H33        -4.3975   -0.1062   50.9296 H       1  ZINC000364058410    0.0900
     34 H34        -9.8381   -0.5317   51.1330 H       1  ZINC000364058410    0.0800
     35 H35        -9.3942   -0.7429   52.8444 H       1  ZINC000364058410    0.0800
     36 H36       -11.1809    1.4731   51.7416 H       1  ZINC000364058410    0.0700
     37 H37       -11.7509    0.0206   52.5976 H       1  ZINC000364058410    0.0800
     38 H38       -11.6023    1.9385   54.1497 H       1  ZINC000364058410    0.0800
     39 H39       -10.4152    0.6866   54.5901 H       1  ZINC000364058410    0.0700
     40 H40        -9.8692    3.2379   53.0034 H       1  ZINC000364058410    0.0800
     41 H41        -9.3188    2.8751   54.6595 H       1  ZINC000364058410    0.0900
     42 H42        -7.1938    4.6378   54.2343 H       1  ZINC000364058410    0.1500
     43 H43        -6.9435    5.5104   56.6151 H       1  ZINC000364058410    0.1500
     44 H44        -6.7048    3.7045   58.3706 H       1  ZINC000364058410    0.1700
     45 H45        -6.7369    2.7863   50.2229 H       1  ZINC000364058410    0.0900
     46 H46        -6.8424    1.6580   48.8009 H       1  ZINC000364058410    0.1100
     47 H47        -4.0583    4.3737   53.4569 H       1  ZINC000364058410    0.1800
@<TRIPOS>BOND
     1     1     2    1
     2     1    27    1
     3     1    28    1
     4     1    29    1
     5     2    26    1
     6     2     3    2
     7     3     4    1
     8     3    30    1
     9     4     5    1
    10     4    25    1
    11     5    24    1
    12     5     6    1
    13     5    31    1
    14     6     7    1
    15     6    32    1
    16     6    33    1
    17     7     8   am
    18     7    24    1
    19     8     9    2
    20     8    10    1
    21    10    11    1
    22    10    16    1
    23    10    12    1
    24    12    13    1
    25    12    34    1
    26    12    35    1
    27    13    14    1
    28    13    36    1
    29    13    37    1
    30    14    15    1
    31    14    38    1
    32    14    39    1
    33    15    16    1
    34    15    40    1
    35    15    41    1
    36    16    17   am
    37    17    18    2
    38    17    19    1
    39    19    23    1
    40    19    20    2
    41    20    21    1
    42    20    42    1
    43    21    22    2
    44    21    43    1
    45    22    23    1
    46    22    44    1
    47    24    45    1
    48    24    46    1
    49    25    26    2
    50    26    47    1
@<TRIPOS>SUBSTRUCTURE
     1 ZINC000364058410        1 TEMP              0 ****  ****    0 ROOT


##########                                Name:    ZINC000550782577
##########                DOCK_Rotatable_Bonds:                   5
##########                         Heavy_Atoms:                  25
##########                    Molecular_Weight:              338.45
##########                DOCK_Rotatable_Bonds:                   5
##########                       Formal_Charge:         -0.00999954
##########                     HBond_Acceptors:                   4
##########                        HBond_Donors:                   0
##########                         Heavy_Atoms:                  25
##########                          Grid_Score:          -26.495869
##########                     Grid_vdw_energy:          -27.071695
##########                      Grid_es_energy:            0.575826
##########           Internal_energy_repulsive:           33.269093

@<TRIPOS>MOLECULE
ZINC000550782577
 51 53 1 0 0
SMALL
USER_CHARGES


@<TRIPOS>ATOM
      1 C1         -6.4521    4.1497   50.4083 C.3     1  ZINC000550782577    0.0700
      2 N2         -5.3700    3.1866   50.6269 N.am    1  ZINC000550782577   -0.5900
      3 C3         -5.6067    2.0514   51.3137 C.2     1  ZINC000550782577    0.5800
      4 O4         -4.7090    1.2523   51.4951 O.2     1  ZINC000550782577   -0.5400
      5 C5         -6.9593    1.7778   51.8467 C.ar    1  ZINC000550782577    0.0300
      6 C6         -7.5571    0.5408   51.6093 C.ar    1  ZINC000550782577   -0.0600
      7 C7         -8.8225    0.2965   52.1129 C.ar    1  ZINC000550782577   -0.1200
      8 C8         -9.4520    1.3021   52.8408 C.ar    1  ZINC000550782577    0.1100
      9 O9        -10.6932    1.1045   53.3531 O.3     1  ZINC000550782577   -0.3000
     10 C10       -10.7774    0.7752   54.7410 C.3     1  ZINC000550782577    0.1000
     11 C11       -11.3483    1.9657   55.5139 C.3     1  ZINC000550782577   -0.2000
     12 C12       -11.6928   -0.4373   54.9228 C.3     1  ZINC000550782577   -0.1400
     13 C13        -9.3812    0.4444   55.2723 C.3     1  ZINC000550782577   -0.2000
     14 C14        -8.7931    2.5133   53.0379 C.ar    1  ZINC000550782577   -0.0100
     15 N15        -7.5894    2.7113   52.5508 N.ar    1  ZINC000550782577   -0.4100
     16 C16        -4.0305    3.4575   50.0990 C.3     1  ZINC000550782577    0.1400
     17 H17        -4.0079    4.4490   49.6468 H       1  ZINC000550782577    0.1100
     18 C18        -3.0035    3.3846   51.2351 C.3     1  ZINC000550782577   -0.1300
     19 C19        -1.6660    3.9021   50.7095 C.3     1  ZINC000550782577   -0.0800
     20 C20        -1.2977    3.2076   49.4246 C.ar    1  ZINC000550782577   -0.0800
     21 C21         0.0274    3.2681   49.0137 C.ar    1  ZINC000550782577   -0.1200
     22 C22         0.4270    2.6570   47.8431 C.ar    1  ZINC000550782577   -0.1200
     23 C23        -0.4986    1.9796   47.0718 C.ar    1  ZINC000550782577   -0.1200
     24 C24        -1.8152    1.9163   47.4795 C.ar    1  ZINC000550782577   -0.1200
     25 C25        -2.2187    2.5275   48.6594 C.ar    1  ZINC000550782577   -0.0700
     26 C26        -3.6680    2.4063   49.0520 C.3     1  ZINC000550782577   -0.0900
     27 H27        -6.5466    4.7945   51.2821 H       1  ZINC000550782577    0.0600
     28 H28        -6.2266    4.7567   49.5315 H       1  ZINC000550782577    0.0600
     29 H29        -7.3881    3.6145   50.2487 H       1  ZINC000550782577    0.1100
     30 H30        -7.0394   -0.2167   51.0396 H       1  ZINC000550782577    0.1600
     31 H31        -9.3106   -0.6522   51.9448 H       1  ZINC000550782577    0.1500
     32 H32       -12.4366    1.9491   55.4549 H       1  ZINC000550782577    0.0700
     33 H33       -11.0400    1.9030   56.5575 H       1  ZINC000550782577    0.0800
     34 H34       -10.9751    2.8934   55.0800 H       1  ZINC000550782577    0.0800
     35 H35       -11.2860   -1.2854   54.3722 H       1  ZINC000550782577    0.0700
     36 H36       -11.7570   -0.6884   55.9816 H       1  ZINC000550782577    0.0800
     37 H37       -12.6874   -0.2016   54.5443 H       1  ZINC000550782577    0.0700
     38 H38        -8.7304    1.3097   55.1470 H       1  ZINC000550782577    0.0800
     39 H39        -9.4462    0.1886   56.3299 H       1  ZINC000550782577    0.0800
     40 H40        -8.9726   -0.4009   54.7185 H       1  ZINC000550782577    0.0700
     41 H41        -9.2761    3.2975   53.6018 H       1  ZINC000550782577    0.1900
     42 H42        -3.3343    4.0034   52.0692 H       1  ZINC000550782577    0.0700
     43 H43        -2.8935    2.3515   51.5648 H       1  ZINC000550782577    0.0700
     44 H44        -1.7411    4.9745   50.5298 H       1  ZINC000550782577    0.0800
     45 H45        -0.8913    3.7162   51.4535 H       1  ZINC000550782577    0.0800
     46 H46         0.7510    3.7980   49.6153 H       1  ZINC000550782577    0.1200
     47 H47         1.4594    2.7081   47.5301 H       1  ZINC000550782577    0.1200
     48 H48        -0.1924    1.5017   46.1529 H       1  ZINC000550782577    0.1200
     49 H49        -2.5379    1.3870   46.8762 H       1  ZINC000550782577    0.1200
     50 H50        -3.8471    1.4130   49.4636 H       1  ZINC000550782577    0.0800
     51 H51        -4.2924    2.5469   48.1697 H       1  ZINC000550782577    0.0800
@<TRIPOS>BOND
     1     1     2    1
     2     1    27    1
     3     1    28    1
     4     1    29    1
     5     2     3   am
     6     2    16    1
     7     3     4    2
     8     3     5    1
     9     5    15   ar
    10     5     6   ar
    11     6     7   ar
    12     6    30    1
    13     7     8   ar
    14     7    31    1
    15     8     9    1
    16     8    14   ar
    17     9    10    1
    18    10    11    1
    19    10    12    1
    20    10    13    1
    21    11    32    1
    22    11    33    1
    23    11    34    1
    24    12    35    1
    25    12    36    1
    26    12    37    1
    27    13    38    1
    28    13    39    1
    29    13    40    1
    30    14    15   ar
    31    14    41    1
    32    16    17    1
    33    16    26    1
    34    16    18    1
    35    18    19    1
    36    18    42    1
    37    18    43    1
    38    19    20    1
    39    19    44    1
    40    19    45    1
    41    20    25   ar
    42    20    21   ar
    43    21    22   ar
    44    21    46    1
    45    22    23   ar
    46    22    47    1
    47    23    24   ar
    48    23    48    1
    49    24    25   ar
    50    24    49    1
    51    25    26    1
    52    26    50    1
    53    26    51    1
@<TRIPOS>SUBSTRUCTURE
     1 ZINC000550782577        1 TEMP              0 ****  ****    0 ROOT


##########                                Name:    ZINC000535362552
##########                DOCK_Rotatable_Bonds:                   5
##########                         Heavy_Atoms:                  26
##########                    Molecular_Weight:             416.228
##########                DOCK_Rotatable_Bonds:                   5
##########                       Formal_Charge:         -0.00999981
##########                     HBond_Acceptors:                   6
##########                        HBond_Donors:                   1
##########                         Heavy_Atoms:                  26
##########                          Grid_Score:          -26.491241
##########                     Grid_vdw_energy:          -25.255817
##########                      Grid_es_energy:           -1.235424
##########           Internal_energy_repulsive:            3.395466

@<TRIPOS>MOLECULE
ZINC000535362552
 40 43 1 0 0
SMALL
USER_CHARGES


@<TRIPOS>ATOM
      1 C1          0.0814    6.8757   60.1857 C.3     1  ZINC000535362552    0.0300
      2 O2         -0.2495    6.0335   59.0503 O.3     1  ZINC000535362552   -0.3400
      3 C3          0.7371    5.7831   58.1655 C.2     1  ZINC000535362552    0.5500
      4 O4          1.8983    5.9431   58.4885 O.2     1  ZINC000535362552   -0.4800
      5 C5          0.4090    5.3175   56.8125 C.2     1  ZINC000535362552   -0.0100
      6 C6         -0.7719    4.7550   56.4439 C.2     1  ZINC000535362552   -0.0900
      7 C7         -0.6491    4.4525   55.0185 C.ar    1  ZINC000535362552   -0.1300
      8 C8         -1.4989    3.8790   54.0700 C.ar    1  ZINC000535362552   -0.0600
      9 C9         -1.0640    3.7312   52.7662 C.ar    1  ZINC000535362552    0.1200
     10 N10        -1.9101    3.1575   51.8080 N.am    1  ZINC000535362552   -0.6700
     11 C11        -2.5435    3.9410   50.9128 C.2     1  ZINC000535362552    0.5200
     12 O12        -2.3812    5.1428   50.9367 O.2     1  ZINC000535362552   -0.5000
     13 C13        -3.4535    3.3239   49.8823 C.3     1  ZINC000535362552   -0.1000
     14 H14        -3.9778    4.0945   49.3170 H       1  ZINC000535362552    0.1300
     15 C15        -2.6641    2.3865   48.9381 C.3     1  ZINC000535362552    0.0600
     16 O16        -3.5968    1.3195   48.6960 O.3     1  ZINC000535362552   -0.2900
     17 C17        -4.4351    1.2058   49.7629 C.ar    1  ZINC000535362552    0.1300
     18 C18        -5.2424    0.1412   50.1546 C.ar    1  ZINC000535362552   -0.1300
     19 C19        -6.0312    0.2449   51.2818 C.ar    1  ZINC000535362552   -0.0500
     20 C20        -6.0277    1.4067   52.0325 C.ar    1  ZINC000535362552   -0.1200
     21 Br21       -7.1153    1.5443   53.5734 Br      1  ZINC000535362552   -0.0400
     22 C22        -5.2245    2.4683   51.6517 C.ar    1  ZINC000535362552   -0.0100
     23 C23        -4.4339    2.3651   50.5296 C.ar    1  ZINC000535362552   -0.1600
     24 C24         0.2141    4.1520   52.4024 C.ar    1  ZINC000535362552   -0.0900
     25 C25         1.0586    4.7179   53.3314 C.ar    1  ZINC000535362552   -0.0900
     26 C26         0.6411    4.8763   54.6477 C.ar    1  ZINC000535362552    0.0700
     27 O27         1.2323    5.3888   55.7456 O.3     1  ZINC000535362552   -0.1700
     28 H28         0.4105    7.8521   59.8301 H       1  ZINC000535362552    0.0700
     29 H29        -0.7990    6.9968   60.8169 H       1  ZINC000535362552    0.1100
     30 H30         0.8808    6.4106   60.7624 H       1  ZINC000535362552    0.0700
     31 H31        -1.6276    4.5684   57.0759 H       1  ZINC000535362552    0.1800
     32 H32        -2.4888    3.5532   54.3532 H       1  ZINC000535362552    0.1400
     33 H33        -2.0398    2.1963   51.7889 H       1  ZINC000535362552    0.4100
     34 H34        -2.4121    2.8973   48.0088 H       1  ZINC000535362552    0.1200
     35 H35        -1.7664    2.0107   49.4291 H       1  ZINC000535362552    0.0900
     36 H36        -5.2511   -0.7694   49.5739 H       1  ZINC000535362552    0.1400
     37 H37        -6.6548   -0.5851   51.5794 H       1  ZINC000535362552    0.1400
     38 H38        -5.2184    3.3775   52.2346 H       1  ZINC000535362552    0.1400
     39 H39         0.5456    4.0326   51.3815 H       1  ZINC000535362552    0.1500
     40 H40         2.0467    5.0391   53.0369 H       1  ZINC000535362552    0.1500
@<TRIPOS>BOND
     1     1     2    1
     2     1    28    1
     3     1    29    1
     4     1    30    1
     5     2     3    1
     6     3     4    2
     7     3     5    1
     8     5    27    1
     9     5     6    2
    10     6     7    1
    11     6    31    1
    12     7    26   ar
    13     7     8   ar
    14     8     9   ar
    15     8    32    1
    16     9    10    1
    17     9    24   ar
    18    10    11   am
    19    10    33    1
    20    11    12    2
    21    11    13    1
    22    13    14    1
    23    13    23    1
    24    13    15    1
    25    15    16    1
    26    15    34    1
    27    15    35    1
    28    16    17    1
    29    17    23   ar
    30    17    18   ar
    31    18    19   ar
    32    18    36    1
    33    19    20   ar
    34    19    37    1
    35    20    21    1
    36    20    22   ar
    37    22    23   ar
    38    22    38    1
    39    24    25   ar
    40    24    39    1
    41    25    26   ar
    42    25    40    1
    43    26    27    1
@<TRIPOS>SUBSTRUCTURE
     1 ZINC000535362552        1 TEMP              0 ****  ****    0 ROOT


##########                                Name:    ZINC000437443367
##########                DOCK_Rotatable_Bonds:                   8
##########                         Heavy_Atoms:                  24
##########                    Molecular_Weight:             334.434
##########                DOCK_Rotatable_Bonds:                   8
##########                       Formal_Charge:          -0.0500003
##########                     HBond_Acceptors:                   5
##########                        HBond_Donors:                   1
##########                         Heavy_Atoms:                  24
##########                          Grid_Score:          -26.407578
##########                     Grid_vdw_energy:          -26.740948
##########                      Grid_es_energy:            0.333369
##########           Internal_energy_repulsive:           30.208456

@<TRIPOS>MOLECULE
ZINC000437443367
 51 52 1 0 0
SMALL
USER_CHARGES


@<TRIPOS>ATOM
      1 C1          0.7863    5.8819   50.4789 C.3     1  ZINC000437443367   -0.1200
      2 C2          0.2011    4.6645   49.8108 C.ar    1  ZINC000437443367   -0.1000
      3 C3         -0.9794    4.1218   50.2776 C.ar    1  ZINC000437443367   -0.1200
      4 C4         -1.5184    2.9993   49.6612 C.ar    1  ZINC000437443367    0.1400
      5 N5         -2.7140    2.4483   50.1318 N.am    1  ZINC000437443367   -0.6400
      6 C6         -3.7411    2.2428   49.2838 C.2     1  ZINC000437443367    0.5000
      7 O7         -3.6282    2.5361   48.1114 O.2     1  ZINC000437443367   -0.4800
      8 C8         -5.0184    1.6542   49.7866 C.2     1  ZINC000437443367    0.5100
      9 O9         -5.0974    0.4606   49.9909 O.2     1  ZINC000437443367   -0.5200
     10 N10        -6.0832    2.4488   50.0136 N.am    1  ZINC000437443367   -0.5700
     11 C11        -7.3360    1.8715   50.5068 C.3     1  ZINC000437443367    0.0900
     12 C12        -7.2462    1.6766   52.0218 C.3     1  ZINC000437443367   -0.1200
     13 C13        -8.5899    1.1724   52.5516 C.3     1  ZINC000437443367   -0.0900
     14 C14        -8.6920   -0.3378   52.3283 C.3     1  ZINC000437443367   -0.1400
     15 C15        -8.6941    1.4749   54.0478 C.3     1  ZINC000437443367   -0.1500
     16 C16        -5.9875    3.8897   49.7671 C.3     1  ZINC000437443367    0.1300
     17 C17        -7.3490    4.4354   49.2889 C.3     1  ZINC000437443367   -0.1300
     18 C18        -8.0163    4.9744   50.5786 C.3     1  ZINC000437443367   -0.1300
     19 C19        -6.8232    5.5955   51.3467 C.3     1  ZINC000437443367   -0.1200
     20 C20        -5.6533    4.6273   51.0755 C.3     1  ZINC000437443367   -0.1400
     21 C21        -0.8678    2.4257   48.5763 C.ar    1  ZINC000437443367   -0.1100
     22 C22         0.3129    2.9720   48.1128 C.ar    1  ZINC000437443367   -0.1300
     23 C23         0.8453    4.0941   48.7252 C.ar    1  ZINC000437443367    0.0800
     24 F24         2.0004    4.6268   48.2702 F       1  ZINC000437443367   -0.1400
     25 H25         0.3928    6.7810   50.0048 H       1  ZINC000437443367    0.0800
     26 H26         0.5175    5.8810   51.5353 H       1  ZINC000437443367    0.0700
     27 H27         1.8715    5.8643   50.3801 H       1  ZINC000437443367    0.0700
     28 H28        -1.4835    4.5692   51.1215 H       1  ZINC000437443367    0.1400
     29 H29        -2.8042    2.2138   51.0687 H       1  ZINC000437443367    0.4200
     30 H30        -8.1618    2.5441   50.2754 H       1  ZINC000437443367    0.0900
     31 H31        -7.5062    0.9082   50.0261 H       1  ZINC000437443367    0.1000
     32 H32        -6.4691    0.9468   52.2487 H       1  ZINC000437443367    0.0700
     33 H33        -7.0019    2.6270   52.4964 H       1  ZINC000437443367    0.0600
     34 H34        -9.4004    1.6735   52.0223 H       1  ZINC000437443367    0.0600
     35 H35        -7.8816   -0.8388   52.8576 H       1  ZINC000437443367    0.0600
     36 H36        -9.6493   -0.6970   52.7058 H       1  ZINC000437443367    0.0400
     37 H37        -8.6178   -0.5532   51.2624 H       1  ZINC000437443367    0.0600
     38 H38        -8.6214    2.5507   54.2070 H       1  ZINC000437443367    0.0500
     39 H39        -9.6515    1.1157   54.4254 H       1  ZINC000437443367    0.0500
     40 H40        -7.8837    0.9738   54.5771 H       1  ZINC000437443367    0.0500
     41 H41        -5.2206    4.0902   49.0189 H       1  ZINC000437443367    0.1000
     42 H42        -7.2054    5.2407   48.5686 H       1  ZINC000437443367    0.0800
     43 H43        -7.9490    3.6360   48.8544 H       1  ZINC000437443367    0.0700
     44 H44        -8.7599    5.7348   50.3400 H       1  ZINC000437443367    0.0700
     45 H45        -8.4632    4.1616   51.1510 H       1  ZINC000437443367    0.0700
     46 H46        -6.5948    6.5881   50.9587 H       1  ZINC000437443367    0.0700
     47 H47        -7.0397    5.6427   52.4141 H       1  ZINC000437443367    0.0700
     48 H48        -5.5622    3.9132   51.8939 H       1  ZINC000437443367    0.0800
     49 H49        -4.7245    5.1865   50.9621 H       1  ZINC000437443367    0.0700
     50 H50        -1.2847    1.5530   48.0958 H       1  ZINC000437443367    0.1600
     51 H51         0.8192    2.5263   47.2692 H       1  ZINC000437443367    0.1400
@<TRIPOS>BOND
     1     1     2    1
     2     1    25    1
     3     1    26    1
     4     1    27    1
     5     2    23   ar
     6     2     3   ar
     7     3     4   ar
     8     3    28    1
     9     4     5    1
    10     4    21   ar
    11     5     6   am
    12     5    29    1
    13     6     7    2
    14     6     8    1
    15     8     9    2
    16     8    10   am
    17    10    11    1
    18    10    16    1
    19    11    12    1
    20    11    30    1
    21    11    31    1
    22    12    13    1
    23    12    32    1
    24    12    33    1
    25    13    14    1
    26    13    15    1
    27    13    34    1
    28    14    35    1
    29    14    36    1
    30    14    37    1
    31    15    38    1
    32    15    39    1
    33    15    40    1
    34    16    20    1
    35    16    17    1
    36    16    41    1
    37    17    18    1
    38    17    42    1
    39    17    43    1
    40    18    19    1
    41    18    44    1
    42    18    45    1
    43    19    20    1
    44    19    46    1
    45    19    47    1
    46    20    48    1
    47    20    49    1
    48    21    22   ar
    49    21    50    1
    50    22    23   ar
    51    22    51    1
    52    23    24    1
@<TRIPOS>SUBSTRUCTURE
     1 ZINC000437443367        1 TEMP              0 ****  ****    0 ROOT


##########                                Name:    ZINC000004040798
##########                DOCK_Rotatable_Bonds:                   3
##########                         Heavy_Atoms:                  22
##########                    Molecular_Weight:             361.151
##########                DOCK_Rotatable_Bonds:                   3
##########                       Formal_Charge:           0.0200003
##########                     HBond_Acceptors:                   6
##########                        HBond_Donors:                   1
##########                         Heavy_Atoms:                  22
##########                          Grid_Score:          -26.386776
##########                     Grid_vdw_energy:          -25.831263
##########                      Grid_es_energy:           -0.555513
##########           Internal_energy_repulsive:            2.762451

@<TRIPOS>MOLECULE
ZINC000004040798
 31 33 1 0 0
SMALL
USER_CHARGES


@<TRIPOS>ATOM
      1 O1         -4.6050    0.3309   49.8544 O.2     1  ZINC000004040798   -0.4800
      2 C2         -5.1090    1.3678   50.2433 C.2     1  ZINC000004040798    0.6100
      3 N3         -4.4588    2.5367   50.0779 N.am    1  ZINC000004040798   -0.6600
      4 C4         -3.2022    2.5572   49.4643 C.ar    1  ZINC000004040798    0.2300
      5 C5         -3.0615    2.1259   48.1520 C.ar    1  ZINC000004040798   -0.1300
      6 C6         -1.8189    2.1472   47.5488 C.ar    1  ZINC000004040798   -0.0100
      7 C7         -0.7156    2.5973   48.2500 C.ar    1  ZINC000004040798   -0.0600
      8 N8          0.6141    2.6186   47.6000 N.pl3   1  ZINC000004040798    0.0300
      9 O9          0.7354    2.2398   46.4487 O.2     1  ZINC000004040798   -0.1500
     10 O10         1.5870    3.0149   48.2164 O.2     1  ZINC000004040798   -0.1500
     11 C11        -0.8515    3.0283   49.5571 C.ar    1  ZINC000004040798    0.0000
     12 C12        -2.0922    3.0146   50.1649 C.ar    1  ZINC000004040798   -0.1400
     13 Br13       -2.2775    3.6039   51.9521 Br      1  ZINC000004040798    0.0000
     14 C14        -6.4292    1.3463   50.8879 C.2     1  ZINC000004040798   -0.0500
     15 C15        -7.2715    0.2809   50.9089 C.2     1  ZINC000004040798   -0.0800
     16 C16        -8.4535    0.7136   51.6537 C.ar    1  ZINC000004040798   -0.1500
     17 C17        -9.6532    0.0987   52.0186 C.ar    1  ZINC000004040798   -0.0500
     18 C18       -10.5816    0.7984   52.7371 C.ar    1  ZINC000004040798   -0.1400
     19 C19       -10.3399    2.1145   53.1056 C.ar    1  ZINC000004040798   -0.0700
     20 C20        -9.1622    2.7393   52.7554 C.ar    1  ZINC000004040798   -0.1100
     21 C21        -8.2028    2.0479   52.0251 C.ar    1  ZINC000004040798    0.0800
     22 O22        -6.9853    2.3802   51.5535 O.3     1  ZINC000004040798   -0.1900
     23 H23        -4.8625    3.3638   50.3843 H       1  ZINC000004040798    0.4300
     24 H24        -3.9227    1.7736   47.6035 H       1  ZINC000004040798    0.1800
     25 H25        -1.7090    1.8114   46.5282 H       1  ZINC000004040798    0.1700
     26 H26         0.0123    3.3793   50.1021 H       1  ZINC000004040798    0.1700
     27 H27        -7.1029   -0.6891   50.4649 H       1  ZINC000004040798    0.1800
     28 H28        -9.8466   -0.9249   51.7338 H       1  ZINC000004040798    0.1400
     29 H29       -11.5098    0.3241   53.0198 H       1  ZINC000004040798    0.1400
     30 H30       -11.0830    2.6552   53.6729 H       1  ZINC000004040798    0.1400
     31 H31        -8.9852    3.7637   53.0481 H       1  ZINC000004040798    0.1400
@<TRIPOS>BOND
     1     1     2    2
     2     2     3   am
     3     2    14    1
     4     3     4    1
     5     3    23    1
     6     4    12   ar
     7     4     5   ar
     8     5     6   ar
     9     5    24    1
    10     6     7   ar
    11     6    25    1
    12     7     8    1
    13     7    11   ar
    14     8     9    2
    15     8    10    2
    16    11    12   ar
    17    11    26    1
    18    12    13    1
    19    14    22    1
    20    14    15    2
    21    15    16    1
    22    15    27    1
    23    16    21   ar
    24    16    17   ar
    25    17    18   ar
    26    17    28    1
    27    18    19   ar
    28    18    29    1
    29    19    20   ar
    30    19    30    1
    31    20    21   ar
    32    20    31    1
    33    21    22    1
@<TRIPOS>SUBSTRUCTURE
     1 ZINC000004040798        1 TEMP              0 ****  ****    0 ROOT


##########                                Name:    ZINC000330515179
##########                DOCK_Rotatable_Bonds:                   4
##########                         Heavy_Atoms:                  21
##########                    Molecular_Weight:             378.287
##########                DOCK_Rotatable_Bonds:                   4
##########                       Formal_Charge:           0.0200002
##########                     HBond_Acceptors:                   6
##########                        HBond_Donors:                   0
##########                         Heavy_Atoms:                  21
##########                          Grid_Score:          -26.148212
##########                     Grid_vdw_energy:          -25.063663
##########                      Grid_es_energy:           -1.084550
##########           Internal_energy_repulsive:            6.340975

@<TRIPOS>MOLECULE
ZINC000330515179
 41 42 1 0 0
SMALL
USER_CHARGES


@<TRIPOS>ATOM
      1 C1         -0.9813    2.8274   51.4160 C.3     1  ZINC000330515179    0.0300
      2 O2         -1.9647    2.7339   50.3834 O.3     1  ZINC000330515179   -0.3800
      3 C3         -2.8685    3.8399   50.3398 C.3     1  ZINC000330515179    0.0700
      4 C4         -4.2707    3.3682   50.7302 C.3     1  ZINC000330515179    0.0800
      5 H5         -5.0153    3.9595   50.1972 H       1  ZINC000330515179    0.0800
      6 C6         -4.4665    3.5399   52.2409 C.3     1  ZINC000330515179    0.0900
      7 N7         -5.7418    2.9101   52.6181 N.am    1  ZINC000330515179   -1.0000
      8 S8         -6.8622    3.7285   53.5222 S.o2    1  ZINC000330515179    2.6900
      9 O9         -6.2503    4.9516   53.9080 O.2     1  ZINC000330515179   -0.9400
     10 O10        -8.0844    3.6648   52.8002 O.2     1  ZINC000330515179   -0.9500
     11 C11        -7.1108    2.8074   55.0034 C.ar    1  ZINC000330515179   -0.6700
     12 C12        -8.0907    1.8337   55.0555 C.ar    1  ZINC000330515179   -0.0100
     13 C13        -8.2858    1.1106   56.2172 C.ar    1  ZINC000330515179   -0.1100
     14 C14        -7.5003    1.3614   57.3278 C.ar    1  ZINC000330515179   -0.0400
     15 Br15       -7.7662    0.3719   58.9172 Br      1  ZINC000330515179   -0.0300
     16 C16        -6.5198    2.3357   57.2753 C.ar    1  ZINC000330515179   -0.1100
     17 C17        -6.3220    3.0547   56.1115 C.ar    1  ZINC000330515179   -0.0100
     18 C18        -5.9918    1.5313   52.1688 C.3     1  ZINC000330515179    0.1000
     19 C19        -5.7218    1.4576   50.6616 C.3     1  ZINC000330515179    0.1000
     20 C20        -5.7849   -0.0003   50.2018 C.3     1  ZINC000330515179   -0.1400
     21 C21        -6.7758    2.2757   49.9129 C.3     1  ZINC000330515179   -0.1800
     22 O22        -4.4227    1.9884   50.3887 O.3     1  ZINC000330515179   -0.3500
     23 H23        -0.3345    1.9506   51.3823 H       1  ZINC000330515179    0.0900
     24 H24        -0.3828    3.7262   51.2675 H       1  ZINC000330515179    0.0400
     25 H25        -1.4763    2.8767   52.3859 H       1  ZINC000330515179    0.0400
     26 H26        -2.5363    4.6084   51.0376 H       1  ZINC000330515179    0.0600
     27 H27        -2.8913    4.2509   49.3305 H       1  ZINC000330515179    0.0700
     28 H28        -3.6471    3.0581   52.7743 H       1  ZINC000330515179    0.0900
     29 H29        -4.4933    4.6009   52.4894 H       1  ZINC000330515179    0.1000
     30 H30        -8.7042    1.6383   54.1884 H       1  ZINC000330515179    0.1500
     31 H31        -9.0516    0.3502   56.2578 H       1  ZINC000330515179    0.1500
     32 H32        -5.9063    2.5318   58.1421 H       1  ZINC000330515179    0.1500
     33 H33        -5.5566    3.8155   56.0704 H       1  ZINC000330515179    0.1500
     34 H34        -5.3261    0.8473   52.6950 H       1  ZINC000330515179    0.0900
     35 H35        -7.0289    1.2622   52.3695 H       1  ZINC000330515179    0.1000
     36 H36        -6.7744   -0.4055   50.4135 H       1  ZINC000330515179    0.0800
     37 H37        -5.5928   -0.0520   49.1301 H       1  ZINC000330515179    0.0700
     38 H38        -5.0325   -0.5822   50.7343 H       1  ZINC000330515179    0.0700
     39 H39        -6.7290    3.3145   50.2396 H       1  ZINC000330515179    0.0600
     40 H40        -6.5831    2.2228   48.8414 H       1  ZINC000330515179    0.0700
     41 H41        -7.7662    1.8725   50.1243 H       1  ZINC000330515179    0.0700
@<TRIPOS>BOND
     1     1     2    1
     2     1    23    1
     3     1    24    1
     4     1    25    1
     5     2     3    1
     6     3     4    1
     7     3    26    1
     8     3    27    1
     9     4     5    1
    10     4    22    1
    11     4     6    1
    12     6     7    1
    13     6    28    1
    14     6    29    1
    15     7     8   am
    16     7    18    1
    17     8     9    2
    18     8    10    2
    19     8    11    1
    20    11    17   ar
    21    11    12   ar
    22    12    13   ar
    23    12    30    1
    24    13    14   ar
    25    13    31    1
    26    14    15    1
    27    14    16   ar
    28    16    17   ar
    29    16    32    1
    30    17    33    1
    31    18    19    1
    32    18    34    1
    33    18    35    1
    34    19    20    1
    35    19    21    1
    36    19    22    1
    37    20    36    1
    38    20    37    1
    39    20    38    1
    40    21    39    1
    41    21    40    1
    42    21    41    1
@<TRIPOS>SUBSTRUCTURE
     1 ZINC000330515179        1 TEMP              0 ****  ****    0 ROOT


##########                                Name:    ZINC000002873519
##########                DOCK_Rotatable_Bonds:                   5
##########                         Heavy_Atoms:                  25
##########                    Molecular_Weight:             375.207
##########                DOCK_Rotatable_Bonds:                   5
##########                       Formal_Charge:               -0.02
##########                     HBond_Acceptors:                   6
##########                        HBond_Donors:                   0
##########                         Heavy_Atoms:                  25
##########                          Grid_Score:          -26.105177
##########                     Grid_vdw_energy:          -26.136324
##########                      Grid_es_energy:            0.031146
##########           Internal_energy_repulsive:            8.622403

@<TRIPOS>MOLECULE
ZINC000002873519
 37 39 1 0 0
SMALL
USER_CHARGES


@<TRIPOS>ATOM
      1 C1         -6.5884   -0.0932   51.9257 C.3     1  ZINC000002873519   -0.1500
      2 C2         -7.6270    0.5220   52.8280 C.2     1  ZINC000002873519    0.4500
      3 O3         -8.5272   -0.1563   53.2633 O.2     1  ZINC000002873519   -0.4800
      4 O4         -7.5518    1.8239   53.1483 O.3     1  ZINC000002873519   -0.2900
      5 C5         -8.2977    2.6843   52.4097 C.ar    1  ZINC000002873519    0.1200
      6 C6         -9.6744    2.5435   52.3573 C.ar    1  ZINC000002873519   -0.1100
      7 C7        -10.4339    3.4200   51.6056 C.ar    1  ZINC000002873519   -0.0800
      8 C8         -9.8278    4.4471   50.8976 C.ar    1  ZINC000002873519   -0.0400
      9 Cl9       -10.7977    5.5389   49.9591 Cl      1  ZINC000002873519   -0.0500
     10 C10        -8.4592    4.6053   50.9358 C.ar    1  ZINC000002873519   -0.0800
     11 C11        -7.6767    3.7272   51.6982 C.ar    1  ZINC000002873519   -0.0700
     12 C12        -6.2227    3.8875   51.7453 C.2     1  ZINC000002873519    0.0400
     13 C13        -5.4406    3.4000   50.7166 C.2     1  ZINC000002873519   -0.1900
     14 C14        -3.9741    3.4595   50.5901 C.2     1  ZINC000002873519   -0.2000
     15 C15        -3.6660    2.8559   49.4229 C.2     1  ZINC000002873519    0.1200
     16 C16        -2.2927    2.6954   48.9049 C.ar    1  ZINC000002873519   -0.0400
     17 C17        -1.1976    3.0216   49.7082 C.ar    1  ZINC000002873519   -0.0800
     18 C18         0.0825    2.8694   49.2184 C.ar    1  ZINC000002873519   -0.1100
     19 C19         0.2835    2.3947   47.9330 C.ar    1  ZINC000002873519   -0.0200
     20 Cl20        1.8982    2.2060   47.3240 Cl      1  ZINC000002873519   -0.0600
     21 C21        -0.7981    2.0695   47.1315 C.ar    1  ZINC000002873519   -0.1100
     22 C22        -2.0832    2.2112   47.6116 C.ar    1  ZINC000002873519   -0.0800
     23 O23        -4.7734    2.4180   48.7910 O.3     1  ZINC000002873519   -0.2600
     24 C24        -5.8834    2.6959   49.4982 C.2     1  ZINC000002873519    0.5200
     25 O25        -7.0291    2.4268   49.1892 O.2     1  ZINC000002873519   -0.4200
     26 H26        -6.9114   -0.0067   50.8882 H       1  ZINC000002873519    0.1100
     27 H27        -5.6398    0.4276   52.0555 H       1  ZINC000002873519    0.1000
     28 H28        -6.4630   -1.1455   52.1807 H       1  ZINC000002873519    0.1100
     29 H29       -10.1557    1.7466   52.9050 H       1  ZINC000002873519    0.1500
     30 H30       -11.5070    3.3041   51.5690 H       1  ZINC000002873519    0.1500
     31 H31        -7.9912    5.4061   50.3827 H       1  ZINC000002873519    0.1500
     32 H32        -5.7614    4.3869   52.5844 H       1  ZINC000002873519    0.1500
     33 H33        -3.2819    3.8998   51.2924 H       1  ZINC000002873519    0.1700
     34 H34        -1.3531    3.3926   50.7105 H       1  ZINC000002873519    0.1400
     35 H35         0.9302    3.1213   49.8386 H       1  ZINC000002873519    0.1400
     36 H36        -0.6348    1.7001   46.1299 H       1  ZINC000002873519    0.1400
     37 H37        -2.9258    1.9572   46.9856 H       1  ZINC000002873519    0.1400
@<TRIPOS>BOND
     1     1     2    1
     2     1    26    1
     3     1    27    1
     4     1    28    1
     5     2     3    2
     6     2     4    1
     7     4     5    1
     8     5    11   ar
     9     5     6   ar
    10     6     7   ar
    11     6    29    1
    12     7     8   ar
    13     7    30    1
    14     8     9    1
    15     8    10   ar
    16    10    11   ar
    17    10    31    1
    18    11    12    1
    19    12    13    2
    20    12    32    1
    21    13    24    1
    22    13    14    1
    23    14    15    2
    24    14    33    1
    25    15    16    1
    26    15    23    1
    27    16    22   ar
    28    16    17   ar
    29    17    18   ar
    30    17    34    1
    31    18    19   ar
    32    18    35    1
    33    19    20    1
    34    19    21   ar
    35    21    22   ar
    36    21    36    1
    37    22    37    1
    38    23    24    1
    39    24    25    2
@<TRIPOS>SUBSTRUCTURE
     1 ZINC000002873519        1 TEMP              0 ****  ****    0 ROOT


##########                                Name:    ZINC001231746020
##########                DOCK_Rotatable_Bonds:                   3
##########                         Heavy_Atoms:                  19
##########                    Molecular_Weight:             348.667
##########                DOCK_Rotatable_Bonds:                   3
##########                       Formal_Charge:          -0.0399997
##########                     HBond_Acceptors:                   4
##########                        HBond_Donors:                   2
##########                         Heavy_Atoms:                  19
##########                          Grid_Score:          -26.002083
##########                     Grid_vdw_energy:          -24.879919
##########                      Grid_es_energy:           -1.122164
##########           Internal_energy_repulsive:           16.222195

@<TRIPOS>MOLECULE
ZINC001231746020
 38 39 1 0 0
SMALL
USER_CHARGES


@<TRIPOS>ATOM
      1 C1        -12.4220    6.0778   48.8277 C.3     1  ZINC001231746020   -0.1500
      2 C2        -10.9416    5.8163   49.1122 C.3     1  ZINC001231746020   -0.0900
      3 H3        -10.4795    6.7222   49.5045 H       1  ZINC001231746020    0.0800
      4 C4        -10.8101    4.7059   50.1201 C.3     1  ZINC001231746020   -0.1400
      5 C5         -9.5745    4.8434   51.0276 C.3     1  ZINC001231746020   -0.0100
      6 N6         -8.3514    5.2505   50.3032 N.4     1  ZINC001231746020   -0.3800
      7 H7         -8.3856    6.2445   50.1336 H       1  ZINC001231746020    0.4100
      8 C8         -7.1796    4.9480   51.1358 C.3     1  ZINC001231746020    0.0700
      9 C9         -6.6402    3.5894   50.7694 C.ar    1  ZINC001231746020   -0.3100
     10 C10        -7.3048    2.4492   51.1809 C.ar    1  ZINC001231746020   -0.0300
     11 C11        -6.8123    1.2014   50.8458 C.ar    1  ZINC001231746020   -0.1600
     12 Cl12       -7.6474   -0.2299   51.3630 Cl      1  ZINC001231746020   -0.0800
     13 C13        -5.6494    1.0944   50.0960 C.ar    1  ZINC001231746020    0.3100
     14 O14        -5.1631   -0.1311   49.7647 O.3     1  ZINC001231746020   -0.6300
     15 C15        -4.9841    2.2408   49.6847 C.ar    1  ZINC001231746020   -0.2100
     16 Br16       -3.3991    2.1001   48.6629 Br      1  ZINC001231746020   -0.0600
     17 C17        -5.4843    3.4856   50.0175 C.ar    1  ZINC001231746020   -0.0200
     18 C18        -8.2198    4.5647   49.0406 C.3     1  ZINC001231746020   -0.0200
     19 C19        -8.7808    5.4841   47.9436 C.3     1  ZINC001231746020   -0.1800
     20 C20       -10.2288    5.3914   47.8039 C.3     1  ZINC001231746020    0.1000
     21 H21       -10.5525    6.0429   46.9922 H       1  ZINC001231746020    0.0700
     22 O22       -10.5847    4.0430   47.4923 O.3     1  ZINC001231746020   -0.5600
     23 H23       -12.9242    6.3654   49.7514 H       1  ZINC001231746020    0.0600
     24 H24       -12.8813    5.1723   48.4313 H       1  ZINC001231746020    0.0700
     25 H25       -12.5152    6.8820   48.0978 H       1  ZINC001231746020    0.0600
     26 H26       -11.7028    4.6945   50.7453 H       1  ZINC001231746020    0.1000
     27 H27       -10.7458    3.7570   49.5876 H       1  ZINC001231746020    0.1000
     28 H28        -9.7876    5.5858   51.7968 H       1  ZINC001231746020    0.1200
     29 H29        -9.3898    3.8852   51.5131 H       1  ZINC001231746020    0.1200
     30 H30        -6.4103    5.7018   50.9681 H       1  ZINC001231746020    0.1200
     31 H31        -7.4696    4.9524   52.1866 H       1  ZINC001231746020    0.1200
     32 H32        -8.2097    2.5332   51.7645 H       1  ZINC001231746020    0.1100
     33 H33        -4.9698    4.3782   49.6933 H       1  ZINC001231746020    0.1100
     34 H34        -7.1688    4.3537   48.8432 H       1  ZINC001231746020    0.1400
     35 H35        -8.7845    3.6328   49.0663 H       1  ZINC001231746020    0.1300
     36 H36        -8.5170    6.5147   48.1814 H       1  ZINC001231746020    0.0900
     37 H37        -8.3208    5.2160   46.9925 H       1  ZINC001231746020    0.1100
     38 H38       -10.1707    3.7030   46.6873 H       1  ZINC001231746020    0.3900
@<TRIPOS>BOND
     1     1     2    1
     2     1    23    1
     3     1    24    1
     4     1    25    1
     5     2     3    1
     6     2    20    1
     7     2     4    1
     8     4     5    1
     9     4    26    1
    10     4    27    1
    11     5     6    1
    12     5    28    1
    13     5    29    1
    14     6     7    1
    15     6     8    1
    16     6    18    1
    17     8     9    1
    18     8    30    1
    19     8    31    1
    20     9    17   ar
    21     9    10   ar
    22    10    11   ar
    23    10    32    1
    24    11    12    1
    25    11    13   ar
    26    13    14    1
    27    13    15   ar
    28    15    16    1
    29    15    17   ar
    30    17    33    1
    31    18    19    1
    32    18    34    1
    33    18    35    1
    34    19    20    1
    35    19    36    1
    36    19    37    1
    37    20    21    1
    38    20    22    1
    39    22    38    1
@<TRIPOS>SUBSTRUCTURE
     1 ZINC001231746020        1 TEMP              0 ****  ****    0 ROOT


##########                                Name:    ZINC000768148687
##########                DOCK_Rotatable_Bonds:                   8
##########                         Heavy_Atoms:                  25
##########                    Molecular_Weight:             371.307
##########                DOCK_Rotatable_Bonds:                   8
##########                       Formal_Charge:         2.98023e-08
##########                     HBond_Acceptors:                  11
##########                        HBond_Donors:                   0
##########                         Heavy_Atoms:                  25
##########                          Grid_Score:          -25.983397
##########                     Grid_vdw_energy:          -24.911638
##########                      Grid_es_energy:           -1.071758
##########           Internal_energy_repulsive:            9.450033

@<TRIPOS>MOLECULE
ZINC000768148687
 43 44 1 0 0
SMALL
USER_CHARGES


@<TRIPOS>ATOM
      1 C1         -6.2719    4.3079   56.7307 C.3     1  ZINC000768148687   -0.1800
      2 C2         -5.9559    2.8278   56.5064 C.3     1  ZINC000768148687    0.1100
      3 N3         -7.0274    2.0076   57.0768 N.pl3   1  ZINC000768148687   -0.3100
      4 N4         -7.0595    1.4946   58.3783 N.2     1  ZINC000768148687   -0.2000
      5 C5         -8.1609    0.8142   58.5375 C.2     1  ZINC000768148687    0.0200
      6 C6         -8.5854    0.0976   59.7934 C.3     1  ZINC000768148687    0.5500
      7 F7         -8.8191   -1.2511   59.5043 F       1  ZINC000768148687   -0.1600
      8 F8         -7.5731    0.2000   60.7536 F       1  ZINC000768148687   -0.1600
      9 F9         -9.7580    0.6784   60.2881 F       1  ZINC000768148687   -0.1500
     10 C10        -8.8863    0.8668   57.3256 C.2     1  ZINC000768148687   -0.1800
     11 C11       -10.1896    0.2349   57.0583 C.2     1  ZINC000768148687    0.5300
     12 O12       -11.2111    0.8867   57.1495 O.2     1  ZINC000768148687   -0.4700
     13 O13       -10.2492   -1.0663   56.7125 O.3     1  ZINC000768148687   -0.3400
     14 C14       -11.5708   -1.6432   56.5427 C.3     1  ZINC000768148687    0.0200
     15 C15       -12.0800   -2.1570   57.8909 C.3     1  ZINC000768148687    0.0600
     16 N16       -13.4845   -2.5670   57.7599 N.3     1  ZINC000768148687   -0.5300
     17 C17       -14.1537   -2.5804   59.0688 C.3     1  ZINC000768148687    0.0100
     18 C18       -15.6262   -2.9541   58.8794 C.3     1  ZINC000768148687    0.0600
     19 O19       -15.7105   -4.2179   58.2153 O.3     1  ZINC000768148687   -0.3800
     20 C20       -15.0696   -4.2404   56.9370 C.3     1  ZINC000768148687    0.0600
     21 C21       -13.5914   -3.8798   57.1067 C.3     1  ZINC000768148687    0.0100
     22 C22        -8.1464    1.6268   56.4408 C.2     1  ZINC000768148687    0.0600
     23 C23        -8.5216    1.9588   55.0195 C.3     1  ZINC000768148687    0.3400
     24 F24        -8.2307    0.8678   54.1935 F       1  ZINC000768148687   -0.1700
     25 F25        -9.8898    2.2426   54.9526 F       1  ZINC000768148687   -0.1800
     26 H26        -5.4746    4.9180   56.3063 H       1  ZINC000768148687    0.0900
     27 H27        -7.2162    4.5554   56.2457 H       1  ZINC000768148687    0.0700
     28 H28        -6.3502    4.5047   57.7999 H       1  ZINC000768148687    0.0700
     29 H29        -5.8776    2.6309   55.4372 H       1  ZINC000768148687    0.1100
     30 H30        -5.0116    2.5803   56.9914 H       1  ZINC000768148687    0.1200
     31 H31       -12.2530   -0.8830   56.1624 H       1  ZINC000768148687    0.0800
     32 H32       -11.5178   -2.4706   55.8351 H       1  ZINC000768148687    0.0800
     33 H33       -11.4799   -3.0113   58.2043 H       1  ZINC000768148687    0.1100
     34 H34       -12.0006   -1.3647   58.6351 H       1  ZINC000768148687    0.0900
     35 H35       -13.6724   -3.3136   59.7161 H       1  ZINC000768148687    0.0500
     36 H36       -14.0845   -1.5920   59.5231 H       1  ZINC000768148687    0.0900
     37 H37       -16.1128   -3.0211   59.8525 H       1  ZINC000768148687    0.1000
     38 H38       -16.1203   -2.1924   58.2763 H       1  ZINC000768148687    0.0600
     39 H39       -15.1536   -5.2377   56.5053 H       1  ZINC000768148687    0.1000
     40 H40       -15.5475   -3.5161   56.2774 H       1  ZINC000768148687    0.0600
     41 H41       -13.1119   -3.8399   56.1288 H       1  ZINC000768148687    0.0800
     42 H42       -13.1013   -4.6338   57.7227 H       1  ZINC000768148687    0.0700
     43 H43        -7.9536    2.8277   54.6872 H       1  ZINC000768148687    0.1500
@<TRIPOS>BOND
     1     1     2    1
     2     1    26    1
     3     1    27    1
     4     1    28    1
     5     2     3    1
     6     2    29    1
     7     2    30    1
     8     3    22    1
     9     3     4    1
    10     4     5    2
    11     5     6    1
    12     5    10    1
    13     6     7    1
    14     6     8    1
    15     6     9    1
    16    10    11    1
    17    10    22    2
    18    11    12    2
    19    11    13    1
    20    13    14    1
    21    14    15    1
    22    14    31    1
    23    14    32    1
    24    15    16    1
    25    15    33    1
    26    15    34    1
    27    16    21    1
    28    16    17    1
    29    17    18    1
    30    17    35    1
    31    17    36    1
    32    18    19    1
    33    18    37    1
    34    18    38    1
    35    19    20    1
    36    20    21    1
    37    20    39    1
    38    20    40    1
    39    21    41    1
    40    21    42    1
    41    22    23    1
    42    23    24    1
    43    23    25    1
    44    23    43    1
@<TRIPOS>SUBSTRUCTURE
     1 ZINC000768148687        1 TEMP              0 ****  ****    0 ROOT


##########                                Name:    ZINC000279974681
##########                DOCK_Rotatable_Bonds:                   4
##########                         Heavy_Atoms:                  23
##########                    Molecular_Weight:              338.79
##########                DOCK_Rotatable_Bonds:                   4
##########                       Formal_Charge:           0.0100008
##########                     HBond_Acceptors:                   7
##########                        HBond_Donors:                   1
##########                         Heavy_Atoms:                  23
##########                          Grid_Score:          -25.930313
##########                     Grid_vdw_energy:          -24.368546
##########                      Grid_es_energy:           -1.561768
##########           Internal_energy_repulsive:            7.451697

@<TRIPOS>MOLECULE
ZINC000279974681
 42 45 1 0 0
SMALL
USER_CHARGES


@<TRIPOS>ATOM
      1 C1         -7.8912    0.7200   58.3012 C.3     1  ZINC000279974681   -0.1400
      2 C2         -8.4899    1.1404   56.9574 C.3     1  ZINC000279974681    0.0700
      3 H3         -8.7774    0.2530   56.3935 H       1  ZINC000279974681    0.0600
      4 C4         -7.4511    1.9387   56.1615 C.3     1  ZINC000279974681    0.1000
      5 N5         -8.1063    2.4884   54.9640 N.am    1  ZINC000279974681   -0.6300
      6 C6         -7.5662    2.3234   53.7402 C.2     1  ZINC000279974681    0.7100
      7 O7         -8.1228    2.7853   52.7628 O.2     1  ZINC000279974681   -0.5600
      8 N8         -6.4092    1.6465   53.5999 N.am    1  ZINC000279974681   -0.6700
      9 C9         -5.8476    1.4749   52.3268 C.ar    1  ZINC000279974681    0.2000
     10 C10        -4.8024    2.2889   51.9138 C.ar    1  ZINC000279974681   -0.1200
     11 C11        -4.2475    2.1187   50.6562 C.ar    1  ZINC000279974681    0.0700
     12 C12        -4.7399    1.1303   49.8078 C.ar    1  ZINC000279974681    0.0200
     13 C13        -5.7841    0.3195   50.2231 C.ar    1  ZINC000279974681   -0.0700
     14 C14        -6.3336    0.4860   51.4807 C.ar    1  ZINC000279974681   -0.0700
     15 Cl15       -7.6418   -0.5316   51.9973 Cl      1  ZINC000279974681   -0.0500
     16 O16        -4.0324    1.1661   48.6398 O.3     1  ZINC000279974681   -0.3000
     17 C17        -3.3790    2.4490   48.6254 C.3     1  ZINC000279974681    0.2100
     18 O18        -3.2320    2.7735   50.0205 O.3     1  ZINC000279974681   -0.3000
     19 C19        -9.3687    3.2231   55.1420 C.3     1  ZINC000279974681    0.0800
     20 C20       -10.3140    2.3622   55.9878 C.3     1  ZINC000279974681    0.1100
     21 H21       -10.6089    1.4798   55.4197 H       1  ZINC000279974681    0.0700
     22 C22       -11.5581    3.1753   56.3511 C.3     1  ZINC000279974681   -0.1600
     23 C23       -12.8928    2.7319   55.7485 C.3     1  ZINC000279974681   -0.1700
     24 C24       -12.6098    2.5008   57.2343 C.3     1  ZINC000279974681   -0.1600
     25 O25        -9.6414    1.9572   57.1824 O.3     1  ZINC000279974681   -0.3600
     26 H26        -8.6309    0.1539   58.8674 H       1  ZINC000279974681    0.0700
     27 H27        -7.0123    0.0987   58.1290 H       1  ZINC000279974681    0.0800
     28 H28        -7.6039    1.6077   58.8647 H       1  ZINC000279974681    0.0700
     29 H29        -7.0649    2.7527   56.7749 H       1  ZINC000279974681    0.0800
     30 H30        -6.6332    1.2825   55.8639 H       1  ZINC000279974681    0.1100
     31 H31        -5.9653    1.2781   54.3796 H       1  ZINC000279974681    0.4100
     32 H32        -4.4220    3.0553   52.5729 H       1  ZINC000279974681    0.1800
     33 H33        -6.1661   -0.4468   49.5649 H       1  ZINC000279974681    0.1500
     34 H34        -2.4038    2.3767   48.1441 H       1  ZINC000279974681    0.1400
     35 H35        -4.0012    3.1900   48.1233 H       1  ZINC000279974681    0.0900
     36 H36        -9.1756    4.1665   55.6528 H       1  ZINC000279974681    0.0900
     37 H37        -9.8206    3.4176   54.1694 H       1  ZINC000279974681    0.0900
     38 H38       -11.3975    4.2448   56.4873 H       1  ZINC000279974681    0.1100
     39 H39       -13.6105    3.5098   55.4880 H       1  ZINC000279974681    0.1000
     40 H40       -12.8845    1.8610   55.0932 H       1  ZINC000279974681    0.1000
     41 H41       -12.4154    1.4777   57.5564 H       1  ZINC000279974681    0.1000
     42 H42       -13.1413    3.1265   57.9512 H       1  ZINC000279974681    0.1000
@<TRIPOS>BOND
     1     1     2    1
     2     1    26    1
     3     1    27    1
     4     1    28    1
     5     2     3    1
     6     2    25    1
     7     2     4    1
     8     4     5    1
     9     4    29    1
    10     4    30    1
    11     5     6   am
    12     5    19    1
    13     6     7    2
    14     6     8   am
    15     8     9    1
    16     8    31    1
    17     9    14   ar
    18     9    10   ar
    19    10    11   ar
    20    10    32    1
    21    11    18    1
    22    11    12   ar
    23    12    13   ar
    24    12    16    1
    25    13    14   ar
    26    13    33    1
    27    14    15    1
    28    16    17    1
    29    17    18    1
    30    17    34    1
    31    17    35    1
    32    19    20    1
    33    19    36    1
    34    19    37    1
    35    20    21    1
    36    20    22    1
    37    20    25    1
    38    22    24    1
    39    22    23    1
    40    22    38    1
    41    23    24    1
    42    23    39    1
    43    23    40    1
    44    24    41    1
    45    24    42    1
@<TRIPOS>SUBSTRUCTURE
     1 ZINC000279974681        1 TEMP              0 ****  ****    0 ROOT


##########                                Name:    ZINC000277311370
##########                DOCK_Rotatable_Bonds:                   5
##########                         Heavy_Atoms:                  17
##########                    Molecular_Weight:             361.036
##########                DOCK_Rotatable_Bonds:                   5
##########                       Formal_Charge:        -7.45058e-08
##########                     HBond_Acceptors:                   4
##########                        HBond_Donors:                   1
##########                         Heavy_Atoms:                  17
##########                          Grid_Score:          -25.881332
##########                     Grid_vdw_energy:          -23.418457
##########                      Grid_es_energy:           -2.462875
##########           Internal_energy_repulsive:            9.806278

@<TRIPOS>MOLECULE
ZINC000277311370
 28 28 1 0 0
SMALL
USER_CHARGES


@<TRIPOS>ATOM
      1 C1         -4.6524    3.7998   55.9166 C.3     1  ZINC000277311370   -0.1500
      2 C2         -6.1507    4.1100   55.9182 C.3     1  ZINC000277311370   -0.1000
      3 C3         -6.4295    5.2840   54.9775 C.3     1  ZINC000277311370   -0.1600
      4 C4         -6.9264    2.8800   55.4425 C.3     1  ZINC000277311370    0.2500
      5 H5         -7.9344    3.1761   55.1519 H       1  ZINC000277311370    0.1400
      6 C6         -6.9998    1.8941   56.5331 C.1     1  ZINC000277311370    0.1900
      7 N7         -7.0563    1.1332   57.3747 N.1     1  ZINC000277311370   -0.4100
      8 N8         -6.2414    2.2855   54.2920 N.am    1  ZINC000277311370   -0.7000
      9 C9         -6.8038    2.3445   53.0686 C.2     1  ZINC000277311370    0.5700
     10 O10        -7.8784    2.8922   52.9195 O.2     1  ZINC000277311370   -0.4900
     11 C11        -6.1122    1.7420   51.9058 C.ar    1  ZINC000277311370    0.1100
     12 N12        -5.0243    2.3224   51.4137 N.ar    1  ZINC000277311370   -0.4300
     13 C13        -4.3802    1.8193   50.3825 C.ar    1  ZINC000277311370    0.1300
     14 Br14       -2.8365    2.6950   49.7298 Br      1  ZINC000277311370    0.0200
     15 C15        -4.8178    0.6553   49.7678 C.ar    1  ZINC000277311370   -0.1100
     16 C16        -5.9490    0.0170   50.2492 C.ar    1  ZINC000277311370   -0.0400
     17 C17        -6.6054    0.5671   51.3407 C.ar    1  ZINC000277311370   -0.0900
     18 Br18       -8.1551   -0.2580   52.0436 Br      1  ZINC000277311370    0.0300
     19 H19        -4.0997    4.6761   56.2554 H       1  ZINC000277311370    0.0700
     20 H20        -4.4538    2.9635   56.5867 H       1  ZINC000277311370    0.0700
     21 H21        -4.3364    3.5391   54.9066 H       1  ZINC000277311370    0.0600
     22 H22        -6.4667    4.3707   56.9282 H       1  ZINC000277311370    0.1000
     23 H23        -6.1134    5.0232   53.9675 H       1  ZINC000277311370    0.0600
     24 H24        -7.4969    5.5048   54.9785 H       1  ZINC000277311370    0.0600
     25 H25        -5.8767    6.1602   55.3163 H       1  ZINC000277311370    0.0700
     26 H26        -5.3831    1.8495   54.4107 H       1  ZINC000277311370    0.4200
     27 H27        -4.2818    0.2508   48.9220 H       1  ZINC000277311370    0.1600
     28 H28        -6.3095   -0.8906   49.7878 H       1  ZINC000277311370    0.1700
@<TRIPOS>BOND
     1     1     2    1
     2     1    19    1
     3     1    20    1
     4     1    21    1
     5     2     3    1
     6     2     4    1
     7     2    22    1
     8     3    23    1
     9     3    24    1
    10     3    25    1
    11     4     5    1
    12     4     6    1
    13     4     8    1
    14     6     7    3
    15     8     9   am
    16     8    26    1
    17     9    10    2
    18     9    11    1
    19    11    17   ar
    20    11    12   ar
    21    12    13   ar
    22    13    14    1
    23    13    15   ar
    24    15    16   ar
    25    15    27    1
    26    16    17   ar
    27    16    28    1
    28    17    18    1
@<TRIPOS>SUBSTRUCTURE
     1 ZINC000277311370        1 TEMP              0 ****  ****    0 ROOT


##########                                Name:    ZINC001211202056
##########                DOCK_Rotatable_Bonds:                   4
##########                         Heavy_Atoms:                  23
##########                    Molecular_Weight:             386.181
##########                DOCK_Rotatable_Bonds:                   4
##########                       Formal_Charge:           0.0199999
##########                     HBond_Acceptors:                  11
##########                        HBond_Donors:                   3
##########                         Heavy_Atoms:                  23
##########                          Grid_Score:          -25.861948
##########                     Grid_vdw_energy:          -25.058680
##########                      Grid_es_energy:           -0.803269
##########           Internal_energy_repulsive:           11.156600

@<TRIPOS>MOLECULE
ZINC001211202056
 31 32 1 0 0
SMALL
USER_CHARGES


@<TRIPOS>ATOM
      1 N1         -1.9795    5.1514   53.5530 N.pl3   1  ZINC001211202056   -0.8500
      2 C2         -2.5209    4.4045   52.5031 C.ar    1  ZINC001211202056    0.2900
      3 C3         -3.5357    3.4901   52.7508 C.ar    1  ZINC001211202056   -0.2000
      4 C4         -4.0688    2.7532   51.7108 C.ar    1  ZINC001211202056    0.0400
      5 C5         -3.5929    2.9250   50.4242 C.ar    1  ZINC001211202056   -0.7300
      6 S6         -4.2760    1.9828   49.1013 S.o2    1  ZINC001211202056    2.6900
      7 O7         -3.8338    2.5991   47.8996 O.2     1  ZINC001211202056   -0.9400
      8 O8         -4.0293    0.6182   49.4112 O.2     1  ZINC001211202056   -0.9300
      9 N9         -5.9189    2.1845   49.1531 N.am    1  ZINC001211202056   -1.0500
     10 C10        -6.6347    1.8005   50.2906 C.ar    1  ZINC001211202056    0.1600
     11 C11        -6.6583    0.4685   50.6940 C.ar    1  ZINC001211202056   -0.1200
     12 C12        -7.3817    0.1367   51.8287 C.ar    1  ZINC001211202056   -0.0800
     13 C13        -8.0509    1.1300   52.5176 C.ar    1  ZINC001211202056    0.0400
     14 C14        -8.8393    0.7758   53.7521 C.3     1  ZINC001211202056    0.5300
     15 F15        -9.1302   -0.5926   53.7429 F       1  ZINC001211202056   -0.1700
     16 F16        -8.0870    1.0849   54.8905 F       1  ZINC001211202056   -0.1600
     17 F17       -10.0323    1.5062   53.7691 F       1  ZINC001211202056   -0.1700
     18 N18        -8.0093    2.3842   52.1104 N.ar    1  ZINC001211202056   -0.4100
     19 C19        -7.3295    2.7443   51.0394 C.ar    1  ZINC001211202056    0.1600
     20 Cl20       -7.3115    4.4106   50.5526 Cl      1  ZINC001211202056    0.0000
     21 C21        -2.5819    3.8350   50.1731 C.ar    1  ZINC001211202056    0.0400
     22 C22        -2.0484    4.5797   51.2074 C.ar    1  ZINC001211202056   -0.1400
     23 Cl23       -0.7796    5.7217   50.8918 Cl      1  ZINC001211202056   -0.0500
     24 H24        -1.2732    5.7929   53.3781 H       1  ZINC001211202056    0.4100
     25 H25        -2.3127    5.0311   54.4560 H       1  ZINC001211202056    0.4100
     26 H26        -3.9078    3.3545   53.7556 H       1  ZINC001211202056    0.1400
     27 H27        -4.8582    2.0417   51.9031 H       1  ZINC001211202056    0.1500
     28 H28        -6.3844    2.5692   48.3940 H       1  ZINC001211202056    0.4400
     29 H29        -6.1261   -0.2879   50.1363 H       1  ZINC001211202056    0.2000
     30 H30        -7.4221   -0.8870   52.1704 H       1  ZINC001211202056    0.1700
     31 H31        -2.2124    3.9667   49.1669 H       1  ZINC001211202056    0.1500
@<TRIPOS>BOND
     1     1     2    1
     2     1    24    1
     3     1    25    1
     4     2    22   ar
     5     2     3   ar
     6     3     4   ar
     7     3    26    1
     8     4     5   ar
     9     4    27    1
    10     5     6    1
    11     5    21   ar
    12     6     7    2
    13     6     8    2
    14     6     9   am
    15     9    10    1
    16     9    28    1
    17    10    19   ar
    18    10    11   ar
    19    11    12   ar
    20    11    29    1
    21    12    13   ar
    22    12    30    1
    23    13    14    1
    24    13    18   ar
    25    14    15    1
    26    14    16    1
    27    14    17    1
    28    18    19   ar
    29    19    20    1
    30    21    22   ar
    31    21    31    1
    32    22    23    1
@<TRIPOS>SUBSTRUCTURE
     1 ZINC001211202056        1 TEMP              0 ****  ****    0 ROOT


##########                                Name:    ZINC001708427409
##########                DOCK_Rotatable_Bonds:                   6
##########                         Heavy_Atoms:                  24
##########                    Molecular_Weight:             334.505
##########                DOCK_Rotatable_Bonds:                   6
##########                       Formal_Charge:          -0.0200006
##########                     HBond_Acceptors:                   5
##########                        HBond_Donors:                   1
##########                         Heavy_Atoms:                  24
##########                          Grid_Score:          -25.824905
##########                     Grid_vdw_energy:          -25.308350
##########                      Grid_es_energy:           -0.516556
##########           Internal_energy_repulsive:           20.223318

@<TRIPOS>MOLECULE
ZINC001708427409
 58 60 1 0 0
SMALL
USER_CHARGES


@<TRIPOS>ATOM
      1 C1        -10.3883   -1.4073   57.0003 C.3     1  ZINC001708427409   -0.1500
      2 C2        -10.5339   -1.0961   55.5095 C.3     1  ZINC001708427409   -0.1200
      3 C3        -10.5911    0.4195   55.3081 C.3     1  ZINC001708427409    0.0000
      4 H4        -10.0971    0.9160   56.1433 H       1  ZINC001708427409    0.0800
      5 C5        -12.0517    0.8700   55.2387 C.3     1  ZINC001708427409   -0.1400
      6 C6         -9.8920    0.7823   54.0234 C.2     1  ZINC001708427409    0.1800
      7 N7         -9.9141    0.1008   52.9130 N.2     1  ZINC001708427409   -0.2800
      8 N8         -9.2110    0.6958   52.0166 N.2     1  ZINC001708427409   -0.3200
      9 C9         -8.6983    1.7979   52.5111 C.2     1  ZINC001708427409    0.3600
     10 N10        -7.8856    2.7002   51.8433 N.3     1  ZINC001708427409   -0.4200
     11 C11        -8.6929    3.7841   51.2176 C.3     1  ZINC001708427409    0.0400
     12 C12        -7.7949    4.3452   50.0933 C.3     1  ZINC001708427409   -0.0900
     13 H13        -7.2733    5.2388   50.4357 H       1  ZINC001708427409    0.0900
     14 C14        -8.6321    4.6619   48.8525 C.3     1  ZINC001708427409   -0.1500
     15 C15        -6.7793    3.2121   49.7865 C.3     1  ZINC001708427409   -0.0800
     16 H16        -6.8167    2.9249   48.7358 H       1  ZINC001708427409    0.0900
     17 C17        -5.3931    3.7366   50.1623 C.3     1  ZINC001708427409   -0.1100
     18 C18        -4.3923    2.5816   50.1850 C.3     1  ZINC001708427409   -0.1200
     19 C19        -4.7814    1.6263   51.3111 C.3     1  ZINC001708427409   -0.1100
     20 C20        -6.1718    1.0688   51.0838 C.3     1  ZINC001708427409   -0.1000
     21 C21        -7.2237    2.0613   50.6855 C.3     1  ZINC001708427409    0.1000
     22 H22        -7.9982    1.5107   50.1515 H       1  ZINC001708427409    0.0600
     23 N23        -9.1215    1.8907   53.8049 N.pl3   1  ZINC001708427409   -0.4700
     24 C24        -8.8074    2.9525   54.7642 C.3     1  ZINC001708427409    0.0800
     25 C25        -7.4243    2.7013   55.3682 C.3     1  ZINC001708427409    0.1200
     26 C26        -6.9487    3.9611   56.0947 C.3     1  ZINC001708427409   -0.1800
     27 C27        -7.5045    1.5398   56.3608 C.3     1  ZINC001708427409   -0.1500
     28 O28        -6.5018    2.3750   54.3267 O.3     1  ZINC001708427409   -0.5400
     29 H29       -11.2426   -1.0008   57.5416 H       1  ZINC001708427409    0.0600
     30 H30       -10.3475   -2.4871   57.1438 H       1  ZINC001708427409    0.0600
     31 H31        -9.4708   -0.9558   57.3778 H       1  ZINC001708427409    0.0500
     32 H32        -9.6796   -1.5025   54.9682 H       1  ZINC001708427409    0.0700
     33 H33       -11.4514   -1.5476   55.1321 H       1  ZINC001708427409    0.0800
     34 H34       -12.5574    0.6077   56.1679 H       1  ZINC001708427409    0.0700
     35 H35       -12.0924    1.9498   55.0952 H       1  ZINC001708427409    0.0500
     36 H36       -12.5457    0.3737   54.4034 H       1  ZINC001708427409    0.0700
     37 H37        -9.6145    3.3783   50.8003 H       1  ZINC001708427409    0.0600
     38 H38        -8.9162    4.5613   51.9485 H       1  ZINC001708427409    0.0800
     39 H39        -9.3735    5.4220   49.0987 H       1  ZINC001708427409    0.0600
     40 H40        -7.9816    5.0321   48.0601 H       1  ZINC001708427409    0.0600
     41 H41        -9.1376    3.7573   48.5146 H       1  ZINC001708427409    0.0600
     42 H42        -5.0748    4.4775   49.4288 H       1  ZINC001708427409    0.0600
     43 H43        -5.4355    4.1990   51.1484 H       1  ZINC001708427409    0.0700
     44 H44        -4.4198    2.0543   49.2316 H       1  ZINC001708427409    0.0600
     45 H45        -3.3895    2.9694   50.3638 H       1  ZINC001708427409    0.0600
     46 H46        -4.0665    0.8043   51.3478 H       1  ZINC001708427409    0.0600
     47 H47        -4.7603    2.1622   52.2601 H       1  ZINC001708427409    0.0600
     48 H48        -6.1132    0.3156   50.2980 H       1  ZINC001708427409    0.0600
     49 H49        -6.4953    0.5747   51.9998 H       1  ZINC001708427409    0.0700
     50 H50        -8.8118    3.9158   54.2543 H       1  ZINC001708427409    0.0900
     51 H51        -9.5548    2.9580   55.5577 H       1  ZINC001708427409    0.1000
     52 H52        -7.6523    4.2099   56.8891 H       1  ZINC001708427409    0.0700
     53 H53        -5.9632    3.7822   56.5249 H       1  ZINC001708427409    0.0700
     54 H54        -6.8916    4.7886   55.3876 H       1  ZINC001708427409    0.0600
     55 H55        -7.9213    0.6644   55.8628 H       1  ZINC001708427409    0.0700
     56 H56        -6.5053    1.3069   56.7291 H       1  ZINC001708427409    0.0700
     57 H57        -8.1439    1.8205   57.1978 H       1  ZINC001708427409    0.0700
     58 H58        -5.6654    2.0069   54.6432 H       1  ZINC001708427409    0.3800
@<TRIPOS>BOND
     1     1     2    1
     2     1    29    1
     3     1    30    1
     4     1    31    1
     5     2     3    1
     6     2    32    1
     7     2    33    1
     8     3     4    1
     9     3     5    1
    10     3     6    1
    11     5    34    1
    12     5    35    1
    13     5    36    1
    14     6    23    1
    15     6     7    2
    16     7     8    1
    17     8     9    2
    18     9    10    1
    19     9    23    1
    20    10    21    1
    21    10    11    1
    22    11    12    1
    23    11    37    1
    24    11    38    1
    25    12    13    1
    26    12    14    1
    27    12    15    1
    28    14    39    1
    29    14    40    1
    30    14    41    1
    31    15    16    1
    32    15    21    1
    33    15    17    1
    34    17    18    1
    35    17    42    1
    36    17    43    1
    37    18    19    1
    38    18    44    1
    39    18    45    1
    40    19    20    1
    41    19    46    1
    42    19    47    1
    43    20    21    1
    44    20    48    1
    45    20    49    1
    46    21    22    1
    47    23    24    1
    48    24    25    1
    49    24    50    1
    50    24    51    1
    51    25    26    1
    52    25    27    1
    53    25    28    1
    54    26    52    1
    55    26    53    1
    56    26    54    1
    57    27    55    1
    58    27    56    1
    59    27    57    1
    60    28    58    1
@<TRIPOS>SUBSTRUCTURE
     1 ZINC001708427409        1 TEMP              0 ****  ****    0 ROOT


##########                                Name:    ZINC001318556452
##########                DOCK_Rotatable_Bonds:                   4
##########                         Heavy_Atoms:                  26
##########                    Molecular_Weight:             368.456
##########                DOCK_Rotatable_Bonds:                   4
##########                       Formal_Charge:          -0.0200005
##########                     HBond_Acceptors:                   6
##########                        HBond_Donors:                   1
##########                         Heavy_Atoms:                  26
##########                          Grid_Score:          -25.819542
##########                     Grid_vdw_energy:          -25.571266
##########                      Grid_es_energy:           -0.248276
##########           Internal_energy_repulsive:           26.648558

@<TRIPOS>MOLECULE
ZINC001318556452
 46 48 1 0 0
SMALL
USER_CHARGES


@<TRIPOS>ATOM
      1 C1         -8.1879    3.4519   51.3292 C.3     1  ZINC001318556452   -0.1300
      2 C2         -8.4687    2.0409   51.7777 C.ar    1  ZINC001318556452   -0.1000
      3 C3         -9.7634    1.6478   52.0530 C.ar    1  ZINC001318556452   -0.0500
      4 C4        -10.8960    2.6310   51.9052 C.3     1  ZINC001318556452   -0.4100
      5 S5        -11.1935    3.4540   53.4941 S.o     1  ZINC001318556452    1.2500
      6 C6        -12.5667    4.5788   53.1203 C.3     1  ZINC001318556452   -0.4900
      7 O7        -10.0469    4.2107   53.8576 O.2     1  ZINC001318556452   -0.8400
      8 C8        -10.0221    0.3528   52.4637 C.ar    1  ZINC001318556452   -0.1200
      9 C9         -8.9859   -0.5523   52.6011 C.ar    1  ZINC001318556452   -0.1000
     10 C10        -7.6883   -0.1655   52.3282 C.ar    1  ZINC001318556452   -0.1200
     11 C11        -7.4258    1.1324   51.9092 C.ar    1  ZINC001318556452    0.1400
     12 N12        -6.1138    1.5271   51.6318 N.am    1  ZINC001318556452   -0.6600
     13 C13        -5.7630    1.8642   50.3749 C.2     1  ZINC001318556452    0.5600
     14 O14        -6.5870    1.8250   49.4829 O.2     1  ZINC001318556452   -0.5000
     15 C15        -4.3714    2.2828   50.0806 C.2     1  ZINC001318556452   -0.0300
     16 C16        -3.6717    1.7100   49.0571 C.2     1  ZINC001318556452   -0.1600
     17 C17        -2.3023    2.1442   48.7915 C.2     1  ZINC001318556452    0.5300
     18 O18        -1.6775    1.6337   47.8788 O.2     1  ZINC001318556452   -0.5200
     19 N19        -1.7214    3.0988   49.5389 N.am    1  ZINC001318556452   -0.5200
     20 C20        -0.3467    3.5071   49.2398 C.3     1  ZINC001318556452    0.0600
     21 C21        -2.3934    3.7016   50.5807 C.ar    1  ZINC001318556452    0.1800
     22 C22        -1.7737    4.6885   51.3427 C.ar    1  ZINC001318556452   -0.1700
     23 C23        -2.4569    5.2827   52.3812 C.ar    1  ZINC001318556452   -0.0600
     24 C24        -3.7601    4.9073   52.6769 C.ar    1  ZINC001318556452   -0.1500
     25 C25        -4.3876    3.9412   51.9424 C.ar    1  ZINC001318556452   -0.0600
     26 C26        -3.7158    3.3287   50.8807 C.ar    1  ZINC001318556452   -0.1100
     27 H27        -8.2461    3.5060   50.2422 H       1  ZINC001318556452    0.0800
     28 H28        -8.9249    4.1256   51.7665 H       1  ZINC001318556452    0.0800
     29 H29        -7.1897    3.7448   51.6547 H       1  ZINC001318556452    0.0700
     30 H30       -10.6346    3.3759   51.1535 H       1  ZINC001318556452    0.1000
     31 H31       -11.7976    2.1028   51.5952 H       1  ZINC001318556452    0.1300
     32 H32       -13.4265    4.0019   52.7799 H       1  ZINC001318556452    0.1100
     33 H33       -12.8351    5.1355   54.0183 H       1  ZINC001318556452    0.1100
     34 H34       -12.2636    5.2749   52.3383 H       1  ZINC001318556452    0.0800
     35 H35       -11.0358    0.0478   52.6781 H       1  ZINC001318556452    0.1200
     36 H36        -9.1913   -1.5628   52.9223 H       1  ZINC001318556452    0.1300
     37 H37        -6.8794   -0.8728   52.4360 H       1  ZINC001318556452    0.1500
     38 H38        -5.4559    1.5585   52.3439 H       1  ZINC001318556452    0.4100
     39 H39        -4.1269    0.9421   48.4493 H       1  ZINC001318556452    0.1600
     40 H40         0.0270    2.9322   48.3925 H       1  ZINC001318556452    0.1000
     41 H41        -0.3281    4.5690   48.9950 H       1  ZINC001318556452    0.0800
     42 H42         0.2842    3.3238   50.1097 H       1  ZINC001318556452    0.0800
     43 H43        -0.7598    4.9872   51.1206 H       1  ZINC001318556452    0.1400
     44 H44        -1.9738    6.0477   52.9710 H       1  ZINC001318556452    0.1300
     45 H45        -4.2820    5.3823   53.4944 H       1  ZINC001318556452    0.1300
     46 H46        -5.4018    3.6546   52.1787 H       1  ZINC001318556452    0.1700
@<TRIPOS>BOND
     1     1     2    1
     2     1    27    1
     3     1    28    1
     4     1    29    1
     5     2    11   ar
     6     2     3   ar
     7     3     4    1
     8     3     8   ar
     9     4     5    1
    10     4    30    1
    11     4    31    1
    12     5     6    1
    13     5     7    2
    14     6    32    1
    15     6    33    1
    16     6    34    1
    17     8     9   ar
    18     8    35    1
    19     9    10   ar
    20     9    36    1
    21    10    11   ar
    22    10    37    1
    23    11    12    1
    24    12    13   am
    25    12    38    1
    26    13    14    2
    27    13    15    1
    28    15    26    1
    29    15    16    2
    30    16    17    1
    31    16    39    1
    32    17    18    2
    33    17    19   am
    34    19    20    1
    35    19    21    1
    36    20    40    1
    37    20    41    1
    38    20    42    1
    39    21    26   ar
    40    21    22   ar
    41    22    23   ar
    42    22    43    1
    43    23    24   ar
    44    23    44    1
    45    24    25   ar
    46    24    45    1
    47    25    26   ar
    48    25    46    1
@<TRIPOS>SUBSTRUCTURE
     1 ZINC001318556452        1 TEMP              0 ****  ****    0 ROOT


##########                                Name:    ZINC000793092912
##########                DOCK_Rotatable_Bonds:                   4
##########                         Heavy_Atoms:                  26
##########                    Molecular_Weight:               407.2
##########                DOCK_Rotatable_Bonds:                   4
##########                       Formal_Charge:         2.90573e-07
##########                     HBond_Acceptors:                  10
##########                        HBond_Donors:                   1
##########                         Heavy_Atoms:                  26
##########                          Grid_Score:          -25.673880
##########                     Grid_vdw_energy:          -26.121695
##########                      Grid_es_energy:            0.447814
##########           Internal_energy_repulsive:           12.278734

@<TRIPOS>MOLECULE
ZINC000793092912
 40 43 1 0 0
SMALL
USER_CHARGES


@<TRIPOS>ATOM
      1 C1        -15.1389   -4.0696   58.1748 C.3     1  ZINC000793092912   -0.1300
      2 C2        -14.1209   -2.9287   58.2297 C.3     1  ZINC000793092912   -0.0800
      3 C3        -14.0868   -2.1537   59.5380 C.3     1  ZINC000793092912   -0.1100
      4 C4        -12.6836   -2.0288   60.1014 C.3     1  ZINC000793092912    0.1100
      5 N5        -11.7041   -1.7492   59.0651 N.am    1  ZINC000793092912   -0.5700
      6 C6        -10.9237   -0.6572   59.1865 C.2     1  ZINC000793092912    0.5100
      7 O7        -11.0461    0.0722   60.1487 O.2     1  ZINC000793092912   -0.5100
      8 C8         -9.9083   -0.3446   58.1371 C.2     1  ZINC000793092912    0.5100
      9 O9         -8.7568   -0.7005   58.2816 O.2     1  ZINC000793092912   -0.4900
     10 N10       -10.2703    0.3328   57.0296 N.am    1  ZINC000793092912   -0.6400
     11 C11        -9.3193    0.6255   56.0468 C.ar    1  ZINC000793092912    0.1600
     12 C12        -8.2005    1.3834   56.3667 C.ar    1  ZINC000793092912   -0.1200
     13 C13        -7.2602    1.6735   55.3966 C.ar    1  ZINC000793092912   -0.0600
     14 C14        -7.4308    1.2098   54.1023 C.ar    1  ZINC000793092912    0.0200
     15 O15        -6.6640    1.3552   52.9814 O.3     1  ZINC000793092912   -0.2800
     16 C16        -7.1171    0.3360   52.0709 C.3     1  ZINC000793092912    0.5700
     17 F17        -7.0431    0.7892   50.7495 F       1  ZINC000793092912   -0.1100
     18 F18        -6.3673   -0.8343   52.2305 F       1  ZINC000793092912   -0.1500
     19 O19        -8.4875    0.1184   52.4551 O.3     1  ZINC000793092912   -0.2800
     20 C20        -8.5524    0.4490   53.7780 C.ar    1  ZINC000793092912    0.0500
     21 C21        -9.4909    0.1535   54.7515 C.ar    1  ZINC000793092912   -0.0900
     22 C22       -11.5352   -2.6062   57.9013 C.3     1  ZINC000793092912    0.1100
     23 C23       -12.8807   -3.0693   57.3628 C.3     1  ZINC000793092912   -0.1200
     24 H24       -12.8408   -3.9802   56.7655 H       1  ZINC000793092912    0.1400
     25 C25       -13.9622   -2.0793   56.9573 C.3     1  ZINC000793092912    0.0000
     26 Cl26      -14.9778   -2.4937   55.5264 Cl      1  ZINC000793092912   -0.0800
     27 Cl27      -13.6138   -0.3248   57.1841 Cl      1  ZINC000793092912   -0.0900
     28 H28       -14.6627   -4.9972   58.4927 H       1  ZINC000793092912    0.0800
     29 H29       -15.9738   -3.8439   58.8384 H       1  ZINC000793092912    0.0700
     30 H30       -15.5056   -4.1805   57.1544 H       1  ZINC000793092912    0.0700
     31 H31       -14.4885   -1.1550   59.3670 H       1  ZINC000793092912    0.0900
     32 H32       -14.7155   -2.6647   60.2673 H       1  ZINC000793092912    0.1000
     33 H33       -12.6661   -1.2211   60.8329 H       1  ZINC000793092912    0.1100
     34 H34       -12.4171   -2.9614   60.5988 H       1  ZINC000793092912    0.0800
     35 H35       -11.1905    0.6173   56.9141 H       1  ZINC000793092912    0.4300
     36 H36        -8.0654    1.7469   57.3747 H       1  ZINC000793092912    0.1500
     37 H37        -6.3908    2.2630   55.6478 H       1  ZINC000793092912    0.1500
     38 H38       -10.3578   -0.4407   54.5035 H       1  ZINC000793092912    0.1600
     39 H39       -11.0256   -2.0467   57.1168 H       1  ZINC000793092912    0.1400
     40 H40       -10.9263   -3.4672   58.1772 H       1  ZINC000793092912    0.1000
@<TRIPOS>BOND
     1     1     2    1
     2     1    28    1
     3     1    29    1
     4     1    30    1
     5     2    23    1
     6     2    25    1
     7     2     3    1
     8     3     4    1
     9     3    31    1
    10     3    32    1
    11     4     5    1
    12     4    33    1
    13     4    34    1
    14     5     6   am
    15     5    22    1
    16     6     7    2
    17     6     8    1
    18     8     9    2
    19     8    10   am
    20    10    11    1
    21    10    35    1
    22    11    21   ar
    23    11    12   ar
    24    12    13   ar
    25    12    36    1
    26    13    14   ar
    27    13    37    1
    28    14    20   ar
    29    14    15    1
    30    15    16    1
    31    16    17    1
    32    16    18    1
    33    16    19    1
    34    19    20    1
    35    20    21   ar
    36    21    38    1
    37    22    23    1
    38    22    39    1
    39    22    40    1
    40    23    24    1
    41    23    25    1
    42    25    26    1
    43    25    27    1
@<TRIPOS>SUBSTRUCTURE
     1 ZINC000793092912        1 TEMP              0 ****  ****    0 ROOT


##########                                Name:    ZINC000828026236
##########                DOCK_Rotatable_Bonds:                   1
##########                         Heavy_Atoms:                  19
##########                    Molecular_Weight:             383.045
##########                DOCK_Rotatable_Bonds:                   1
##########                       Formal_Charge:                   0
##########                     HBond_Acceptors:                   5
##########                        HBond_Donors:                   0
##########                         Heavy_Atoms:                  19
##########                          Grid_Score:          -25.673063
##########                     Grid_vdw_energy:          -25.786028
##########                      Grid_es_energy:            0.112965
##########           Internal_energy_repulsive:            4.999807

@<TRIPOS>MOLECULE
ZINC000828026236
 28 30 1 0 0
SMALL
USER_CHARGES


@<TRIPOS>ATOM
      1 N1         -4.8032   -0.9225   49.6764 N.1     1  ZINC000828026236   -0.3800
      2 C2         -5.2155    0.0842   50.0035 C.1     1  ZINC000828026236    0.2600
      3 C3         -5.7352    1.3532   50.4159 C.ar    1  ZINC000828026236   -0.0500
      4 C4         -7.0675    1.4786   50.8249 C.ar    1  ZINC000828026236    0.0100
      5 C5         -7.5213    2.7278   51.2142 C.ar    1  ZINC000828026236   -0.1600
      6 Br6        -9.3117    2.9582   51.7773 Br      1  ZINC000828026236   -0.0100
      7 C7         -6.6543    3.8059   51.1884 C.ar    1  ZINC000828026236    0.1800
      8 N8         -5.4014    3.6663   50.7994 N.ar    1  ZINC000828026236   -0.5000
      9 C9         -4.9147    2.4947   50.4229 C.ar    1  ZINC000828026236    0.3600
     10 N10        -3.5933    2.3949   50.0222 N.3     1  ZINC000828026236   -0.4900
     11 C11        -2.8096    3.5423   50.5011 C.3     1  ZINC000828026236    0.0500
     12 C12        -1.3122    3.2341   50.3738 C.3     1  ZINC000828026236    0.1100
     13 N13        -1.0598    2.7386   49.0182 N.pl3   1  ZINC000828026236   -0.4400
     14 C14         0.1258    2.6289   48.3601 C.2     1  ZINC000828026236   -0.0300
     15 Br15        1.8340    3.0936   49.0247 Br      1  ZINC000828026236    0.0200
     16 C16        -0.1549    2.1235   47.1398 C.2     1  ZINC000828026236    0.0300
     17 N17        -1.4828    1.9315   47.0630 N.2     1  ZINC000828026236   -0.4700
     18 C18        -2.0326    2.2951   48.1820 C.2     1  ZINC000828026236    0.2300
     19 C19        -3.4944    2.2562   48.5588 C.3     1  ZINC000828026236    0.1500
     20 H20        -7.7258    0.6225   50.8363 H       1  ZINC000828026236    0.1600
     21 H21        -7.0098    4.7794   51.4920 H       1  ZINC000828026236    0.1800
     22 H22        -3.0511    4.4214   49.9035 H       1  ZINC000828026236    0.0700
     23 H23        -3.0524    3.7368   51.5458 H       1  ZINC000828026236    0.1100
     24 H24        -0.7340    4.1416   50.5471 H       1  ZINC000828026236    0.1100
     25 H25        -1.0302    2.4733   51.1017 H       1  ZINC000828026236    0.1000
     26 H26         0.5625    1.9109   46.3610 H       1  ZINC000828026236    0.1800
     27 H27        -3.9292    1.3059   48.2490 H       1  ZINC000828026236    0.1200
     28 H28        -4.0215    3.0782   48.0746 H       1  ZINC000828026236    0.1000
@<TRIPOS>BOND
     1     1     2    3
     2     2     3    1
     3     3     9   ar
     4     3     4   ar
     5     4     5   ar
     6     4    20    1
     7     5     6    1
     8     5     7   ar
     9     7     8   ar
    10     7    21    1
    11     8     9   ar
    12     9    10    1
    13    10    19    1
    14    10    11    1
    15    11    12    1
    16    11    22    1
    17    11    23    1
    18    12    13    1
    19    12    24    1
    20    12    25    1
    21    13    18    1
    22    13    14    1
    23    14    15    1
    24    14    16    2
    25    16    17    1
    26    16    26    1
    27    17    18    2
    28    18    19    1
    29    19    27    1
    30    19    28    1
@<TRIPOS>SUBSTRUCTURE
     1 ZINC000828026236        1 TEMP              0 ****  ****    0 ROOT


##########                                Name:    ZINC000931749147
##########                DOCK_Rotatable_Bonds:                   5
##########                         Heavy_Atoms:                  25
##########                    Molecular_Weight:             354.397
##########                DOCK_Rotatable_Bonds:                   5
##########                       Formal_Charge:        -4.76837e-07
##########                     HBond_Acceptors:                   7
##########                        HBond_Donors:                   1
##########                         Heavy_Atoms:                  25
##########                          Grid_Score:          -25.495049
##########                     Grid_vdw_energy:          -26.129807
##########                      Grid_es_energy:            0.634758
##########           Internal_energy_repulsive:           83.499626

@<TRIPOS>MOLECULE
ZINC000931749147
 49 51 1 0 0
SMALL
USER_CHARGES


@<TRIPOS>ATOM
      1 C1        -16.4467   -2.0295   55.7411 C.3     1  ZINC000931749147   -0.1100
      2 C2        -15.8244   -3.3467   55.3555 C.ar    1  ZINC000931749147   -0.1300
      3 C3        -14.9984   -4.0132   56.2500 C.ar    1  ZINC000931749147    0.1800
      4 N4        -14.7428   -3.4624   57.5120 N.am    1  ZINC000931749147   -0.6800
      5 C5        -13.5996   -2.7833   57.7319 C.2     1  ZINC000931749147    0.7100
      6 O6        -12.7902   -2.6487   56.8345 O.2     1  ZINC000931749147   -0.5500
      7 N7        -13.3536   -2.2532   58.9464 N.am    1  ZINC000931749147   -0.6200
      8 C8        -14.3180   -2.4029   60.0476 C.3     1  ZINC000931749147    0.0700
      9 C9        -14.5793   -1.0189   60.6530 C.3     1  ZINC000931749147    0.0500
     10 O10       -13.3305   -0.4055   60.9816 O.3     1  ZINC000931749147   -0.3700
     11 C11       -12.4811   -0.1679   59.8564 C.3     1  ZINC000931749147    0.0500
     12 C12       -12.1098   -1.5130   59.2120 C.3     1  ZINC000931749147    0.1300
     13 H13       -11.4751   -2.0825   59.8909 H       1  ZINC000931749147    0.0900
     14 C14       -11.3674   -1.2670   57.8970 C.3     1  ZINC000931749147   -0.1100
     15 C15       -10.1980   -0.3113   58.1428 C.3     1  ZINC000931749147   -0.1000
     16 C16        -9.1591   -0.9927   59.0388 C.3     1  ZINC000931749147   -0.1500
     17 C17        -7.9580   -0.0599   59.2145 C.3     1  ZINC000931749147    0.0600
     18 O18        -7.4159    0.2634   57.9324 O.3     1  ZINC000931749147   -0.3800
     19 C19        -8.3277    0.9445   57.0682 C.3     1  ZINC000931749147    0.0600
     20 C20        -9.5437    0.0520   56.8062 C.3     1  ZINC000931749147   -0.1500
     21 C21       -14.4261   -5.2268   55.8923 C.ar    1  ZINC000931749147   -0.1200
     22 C22       -14.6790   -5.7696   54.6477 C.ar    1  ZINC000931749147   -0.1100
     23 C23       -15.5028   -5.1050   53.7556 C.ar    1  ZINC000931749147    0.0500
     24 F24       -15.7489   -5.6378   52.5387 F       1  ZINC000931749147   -0.1300
     25 C25       -16.0804   -3.8957   54.1118 C.ar    1  ZINC000931749147    0.0900
     26 F26       -16.8842   -3.2482   53.2401 F       1  ZINC000931749147   -0.1200
     27 H27       -17.4090   -2.2088   56.2205 H       1  ZINC000931749147    0.0800
     28 H28       -15.7879   -1.5053   56.4334 H       1  ZINC000931749147    0.0700
     29 H29       -16.5932   -1.4216   54.8483 H       1  ZINC000931749147    0.0800
     30 H30       -15.3885   -3.5697   58.2280 H       1  ZINC000931749147    0.4100
     31 H31       -15.2503   -2.8183   59.6652 H       1  ZINC000931749147    0.0800
     32 H32       -13.9057   -3.0648   60.8093 H       1  ZINC000931749147    0.0900
     33 H33       -15.1100   -0.3997   59.9298 H       1  ZINC000931749147    0.0600
     34 H34       -15.1819   -1.1240   61.5551 H       1  ZINC000931749147    0.1100
     35 H35       -13.0042    0.4546   59.1305 H       1  ZINC000931749147    0.0600
     36 H36       -11.5742    0.3394   60.1856 H       1  ZINC000931749147    0.1100
     37 H37       -10.9884   -2.2132   57.5112 H       1  ZINC000931749147    0.1100
     38 H38       -12.0505   -0.8260   57.1711 H       1  ZINC000931749147    0.0700
     39 H39       -10.5627    0.5939   58.6282 H       1  ZINC000931749147    0.0700
     40 H40        -9.6009   -1.2049   60.0123 H       1  ZINC000931749147    0.0700
     41 H41        -8.8326   -1.9236   58.5751 H       1  ZINC000931749147    0.0700
     42 H42        -8.2777    0.8543   59.7148 H       1  ZINC000931749147    0.0500
     43 H43        -7.1968   -0.5566   59.8163 H       1  ZINC000931749147    0.0900
     44 H44        -8.6523    1.8717   57.5405 H       1  ZINC000931749147    0.0500
     45 H45        -7.8329    1.1712   56.1238 H       1  ZINC000931749147    0.0900
     46 H46        -9.2249   -0.8578   56.2975 H       1  ZINC000931749147    0.0700
     47 H47       -10.2605    0.5868   56.1832 H       1  ZINC000931749147    0.0700
     48 H48       -13.7829   -5.7461   56.5874 H       1  ZINC000931749147    0.1800
     49 H49       -14.2334   -6.7134   54.3700 H       1  ZINC000931749147    0.1500
@<TRIPOS>BOND
     1     1     2    1
     2     1    27    1
     3     1    28    1
     4     1    29    1
     5     2    25   ar
     6     2     3   ar
     7     3     4    1
     8     3    21   ar
     9     4     5   am
    10     4    30    1
    11     5     6    2
    12     5     7   am
    13     7    12    1
    14     7     8    1
    15     8     9    1
    16     8    31    1
    17     8    32    1
    18     9    10    1
    19     9    33    1
    20     9    34    1
    21    10    11    1
    22    11    12    1
    23    11    35    1
    24    11    36    1
    25    12    13    1
    26    12    14    1
    27    14    15    1
    28    14    37    1
    29    14    38    1
    30    15    20    1
    31    15    16    1
    32    15    39    1
    33    16    17    1
    34    16    40    1
    35    16    41    1
    36    17    18    1
    37    17    42    1
    38    17    43    1
    39    18    19    1
    40    19    20    1
    41    19    44    1
    42    19    45    1
    43    20    46    1
    44    20    47    1
    45    21    22   ar
    46    21    48    1
    47    22    23   ar
    48    22    49    1
    49    23    24    1
    50    23    25   ar
    51    25    26    1
@<TRIPOS>SUBSTRUCTURE
     1 ZINC000931749147        1 TEMP              0 ****  ****    0 ROOT


##########                                Name:    ZINC000656860804
##########                DOCK_Rotatable_Bonds:                   2
##########                         Heavy_Atoms:                  19
##########                    Molecular_Weight:             388.068
##########                DOCK_Rotatable_Bonds:                   2
##########                       Formal_Charge:          8.9407e-08
##########                     HBond_Acceptors:                   8
##########                        HBond_Donors:                   1
##########                         Heavy_Atoms:                  19
##########                          Grid_Score:          -25.494675
##########                     Grid_vdw_energy:          -24.943878
##########                      Grid_es_energy:           -0.550796
##########           Internal_energy_repulsive:           17.555843

@<TRIPOS>MOLECULE
ZINC000656860804
 28 29 1 0 0
SMALL
USER_CHARGES


@<TRIPOS>ATOM
      1 O1         -7.1022   -0.9481   51.7707 O.2     1  ZINC000656860804   -0.5400
      2 C2         -6.9431    0.2407   51.9505 C.2     1  ZINC000656860804    0.5100
      3 C3         -5.7051    0.8909   51.3955 C.3     1  ZINC000656860804    0.1100
      4 N4         -5.8652    2.3512   51.4588 N.am    1  ZINC000656860804   -1.0000
      5 S5         -5.4079    3.3236   50.1987 S.o2    1  ZINC000656860804    2.6900
      6 O6         -6.0600    2.8158   49.0429 O.2     1  ZINC000656860804   -0.9200
      7 O7         -5.5573    4.6626   50.6503 O.2     1  ZINC000656860804   -0.9300
      8 C8         -3.6821    3.0733   49.9466 C.ar    1  ZINC000656860804   -0.6500
      9 C9         -3.2265    2.5614   48.7466 C.ar    1  ZINC000656860804    0.0100
     10 C10        -1.8715    2.3647   48.5480 C.ar    1  ZINC000656860804   -0.0400
     11 Cl11       -1.2991    1.7221   47.0403 Cl      1  ZINC000656860804   -0.0200
     12 C12        -0.9721    2.6809   49.5520 C.ar    1  ZINC000656860804    0.0200
     13 Cl13        0.7284    2.4350   49.3035 Cl      1  ZINC000656860804   -0.0100
     14 C14        -1.4289    3.1934   50.7529 C.ar    1  ZINC000656860804   -0.0900
     15 C15        -2.7831    3.3949   50.9480 C.ar    1  ZINC000656860804    0.0100
     16 Br16       -3.4077    4.0953   52.5896 Br      1  ZINC000656860804    0.0100
     17 C17        -6.4493    2.9140   52.6880 C.3     1  ZINC000656860804    0.0900
     18 C18        -7.8635    2.3521   52.8454 C.3     1  ZINC000656860804    0.0800
     19 N19        -7.8763    0.9126   52.6263 N.am    1  ZINC000656860804   -0.7100
     20 H20        -4.8396    0.5925   51.9872 H       1  ZINC000656860804    0.1200
     21 H21        -5.5645    0.5836   50.3593 H       1  ZINC000656860804    0.1200
     22 H22        -3.9283    2.3144   47.9637 H       1  ZINC000656860804    0.1700
     23 H23        -0.7278    3.4399   51.5365 H       1  ZINC000656860804    0.1700
     24 H24        -5.8425    2.6289   53.5475 H       1  ZINC000656860804    0.1000
     25 H25        -6.4916    4.0004   52.6112 H       1  ZINC000656860804    0.1200
     26 H26        -8.2253    2.5675   53.8508 H       1  ZINC000656860804    0.1000
     27 H27        -8.5216    2.8280   52.1184 H       1  ZINC000656860804    0.0800
     28 H28        -8.6121    0.4054   53.0036 H       1  ZINC000656860804    0.4000
@<TRIPOS>BOND
     1     1     2    2
     2     2    19   am
     3     2     3    1
     4     3     4    1
     5     3    20    1
     6     3    21    1
     7     4     5   am
     8     4    17    1
     9     5     6    2
    10     5     7    2
    11     5     8    1
    12     8    15   ar
    13     8     9   ar
    14     9    10   ar
    15     9    22    1
    16    10    11    1
    17    10    12   ar
    18    12    13    1
    19    12    14   ar
    20    14    15   ar
    21    14    23    1
    22    15    16    1
    23    17    18    1
    24    17    24    1
    25    17    25    1
    26    18    19    1
    27    18    26    1
    28    18    27    1
    29    19    28    1
@<TRIPOS>SUBSTRUCTURE
     1 ZINC000656860804        1 TEMP              0 ****  ****    0 ROOT


##########                                Name:    ZINC000518937710
##########                DOCK_Rotatable_Bonds:                   6
##########                         Heavy_Atoms:                  25
##########                    Molecular_Weight:             397.421
##########                DOCK_Rotatable_Bonds:                   6
##########                       Formal_Charge:          -0.0199997
##########                     HBond_Acceptors:                  11
##########                        HBond_Donors:                   0
##########                         Heavy_Atoms:                  25
##########                          Grid_Score:          -25.337776
##########                     Grid_vdw_energy:          -22.580694
##########                      Grid_es_energy:           -2.757083
##########           Internal_energy_repulsive:           18.167404

@<TRIPOS>MOLECULE
ZINC000518937710
 42 44 1 0 0
SMALL
USER_CHARGES


@<TRIPOS>ATOM
      1 C1        -15.2939   -0.2334   57.1037 C.3     1  ZINC000518937710   -0.1900
      2 C2        -14.5197   -0.7899   58.3002 C.3     1  ZINC000518937710    0.1700
      3 H3        -13.6785   -0.1344   58.5254 H       1  ZINC000518937710    0.1100
      4 C4        -15.4458   -0.8673   59.5156 C.3     1  ZINC000518937710   -0.6600
      5 S5        -15.1725    0.5781   60.5771 S.o2    1  ZINC000518937710    2.4000
      6 C6        -13.6763    0.0993   61.4840 C.3     1  ZINC000518937710   -0.6600
      7 O7        -14.8646    1.6937   59.7525 O.2     1  ZINC000518937710   -0.9200
      8 O8        -16.2498    0.6730   61.4990 O.2     1  ZINC000518937710   -0.9300
      9 N9        -14.0221   -2.1300   57.9794 N.am    1  ZINC000518937710   -0.9600
     10 C10       -14.8766   -3.0750   57.2563 C.3     1  ZINC000518937710    0.0800
     11 C11       -15.0860   -4.4570   57.8785 C.3     1  ZINC000518937710   -0.1800
     12 C12       -16.2237   -3.4341   57.8863 C.3     1  ZINC000518937710   -0.1800
     13 S13       -12.4937   -2.5766   58.4344 S.o2    1  ZINC000518937710    2.6900
     14 O14       -12.4023   -2.3293   59.8307 O.2     1  ZINC000518937710   -0.9400
     15 O15       -12.2589   -3.8522   57.8541 O.2     1  ZINC000518937710   -0.9400
     16 C16       -11.3717   -1.4622   57.6572 C.ar    1  ZINC000518937710   -0.6400
     17 C17       -11.5390   -1.1299   56.3258 C.ar    1  ZINC000518937710   -0.0300
     18 C18       -10.6606   -0.2559   55.7127 C.ar    1  ZINC000518937710   -0.1300
     19 C19        -9.6116    0.2899   56.4286 C.ar    1  ZINC000518937710   -0.0300
     20 C20        -9.4377   -0.0387   57.7632 C.ar    1  ZINC000518937710    0.0200
     21 C21       -10.3256   -0.9151   58.3823 C.ar    1  ZINC000518937710    0.1900
     22 O22        -9.9438   -1.0766   59.6828 O.3     1  ZINC000518937710   -0.2800
     23 C23        -8.5819   -0.6132   59.7440 C.3     1  ZINC000518937710    0.5700
     24 F24        -8.3252   -0.0029   60.9764 F       1  ZINC000518937710   -0.1200
     25 F25        -7.6925   -1.6709   59.5262 F       1  ZINC000518937710   -0.1400
     26 O26        -8.5023    0.3526   58.6772 O.3     1  ZINC000518937710   -0.2900
     27 H27       -16.1133   -0.9080   56.8555 H       1  ZINC000518937710    0.1000
     28 H28       -15.6950    0.7483   57.3553 H       1  ZINC000518937710    0.0800
     29 H29       -14.6249   -0.1440   56.2478 H       1  ZINC000518937710    0.0700
     30 H30       -16.4833   -0.8816   59.1815 H       1  ZINC000518937710    0.1600
     31 H31       -15.2325   -1.7765   60.0777 H       1  ZINC000518937710    0.1400
     32 H32       -12.8419    0.0119   60.7881 H       1  ZINC000518937710    0.1300
     33 H33       -13.4469    0.8577   62.2327 H       1  ZINC000518937710    0.1300
     34 H34       -13.8409   -0.8591   61.9764 H       1  ZINC000518937710    0.1300
     35 H35       -14.8298   -3.0142   56.1690 H       1  ZINC000518937710    0.1500
     36 H36       -15.1768   -5.3057   57.2006 H       1  ZINC000518937710    0.1100
     37 H37       -14.5879   -4.6630   58.8260 H       1  ZINC000518937710    0.1000
     38 H38       -16.4743   -2.9673   58.8389 H       1  ZINC000518937710    0.1000
     39 H39       -17.0632   -3.6100   57.2135 H       1  ZINC000518937710    0.1000
     40 H40       -12.3575   -1.5543   55.7633 H       1  ZINC000518937710    0.1600
     41 H41       -10.7941    0.0008   54.6722 H       1  ZINC000518937710    0.1600
     42 H42        -8.9269    0.9724   55.9471 H       1  ZINC000518937710    0.1500
@<TRIPOS>BOND
     1     1     2    1
     2     1    27    1
     3     1    28    1
     4     1    29    1
     5     2     3    1
     6     2     4    1
     7     2     9    1
     8     4     5    1
     9     4    30    1
    10     4    31    1
    11     5     6    1
    12     5     7    2
    13     5     8    2
    14     6    32    1
    15     6    33    1
    16     6    34    1
    17     9    10    1
    18     9    13   am
    19    10    12    1
    20    10    11    1
    21    10    35    1
    22    11    12    1
    23    11    36    1
    24    11    37    1
    25    12    38    1
    26    12    39    1
    27    13    14    2
    28    13    15    2
    29    13    16    1
    30    16    21   ar
    31    16    17   ar
    32    17    18   ar
    33    17    40    1
    34    18    19   ar
    35    18    41    1
    36    19    20   ar
    37    19    42    1
    38    20    26    1
    39    20    21   ar
    40    21    22    1
    41    22    23    1
    42    23    24    1
    43    23    25    1
    44    23    26    1
@<TRIPOS>SUBSTRUCTURE
     1 ZINC000518937710        1 TEMP              0 ****  ****    0 ROOT


##########                                Name:    ZINC000482962466
##########                DOCK_Rotatable_Bonds:                   2
##########                         Heavy_Atoms:                  25
##########                    Molecular_Weight:             404.303
##########                DOCK_Rotatable_Bonds:                   2
##########                       Formal_Charge:           0.0200002
##########                     HBond_Acceptors:                   4
##########                        HBond_Donors:                   0
##########                         Heavy_Atoms:                  25
##########                          Grid_Score:          -25.287373
##########                     Grid_vdw_energy:          -25.094599
##########                      Grid_es_energy:           -0.192773
##########           Internal_energy_repulsive:            8.550854

@<TRIPOS>MOLECULE
ZINC000482962466
 47 50 1 0 0
SMALL
USER_CHARGES


@<TRIPOS>ATOM
      1 C1         -0.1815    2.8776   49.0726 C.3     1  ZINC000482962466   -0.1400
      2 C2         -1.4513    2.8633   49.9261 C.3     1  ZINC000482962466    0.0700
      3 H3         -1.3138    2.1897   50.7719 H       1  ZINC000482962466    0.0700
      4 C4         -2.6340    2.3841   49.0767 C.3     1  ZINC000482962466    0.0800
      5 N5         -3.8683    2.5560   49.8590 N.am    1  ZINC000482962466   -0.6100
      6 C6         -4.7471    1.5439   50.0002 C.2     1  ZINC000482962466    0.5600
      7 O7         -4.5255    0.4692   49.4770 O.2     1  ZINC000482962466   -0.5200
      8 C8         -5.9798    1.7407   50.7907 C.ar    1  ZINC000482962466   -0.1100
      9 C9         -6.1973    0.9708   51.9472 C.ar    1  ZINC000482962466   -0.0700
     10 C10        -7.3218    1.1331   52.6900 C.ar    1  ZINC000482962466   -0.1000
     11 C11        -8.2880    2.0812   52.3066 C.ar    1  ZINC000482962466   -0.0400
     12 C12        -9.4591    2.2670   53.0594 C.ar    1  ZINC000482962466   -0.0700
     13 C13       -10.3766    3.1929   52.6634 C.ar    1  ZINC000482962466   -0.0800
     14 Br14      -11.9510    3.4385   53.6817 Br      1  ZINC000482962466   -0.0400
     15 C15       -10.1721    3.9627   51.5186 C.ar    1  ZINC000482962466   -0.1000
     16 C16        -9.0500    3.8103   50.7643 C.ar    1  ZINC000482962466   -0.0900
     17 C17        -8.0799    2.8642   51.1423 C.ar    1  ZINC000482962466   -0.0500
     18 C18        -6.9097    2.6862   50.3902 C.ar    1  ZINC000482962466   -0.0700
     19 C19        -4.1148    3.8662   50.4826 C.3     1  ZINC000482962466    0.0700
     20 C20        -2.8601    4.2744   51.2608 C.3     1  ZINC000482962466    0.0800
     21 C21        -3.0139    5.7137   51.7586 C.3     1  ZINC000482962466   -0.1100
     22 C22        -1.7901    6.0839   52.6024 C.3     1  ZINC000482962466   -0.1500
     23 C23        -1.6498    5.0811   53.7507 C.3     1  ZINC000482962466    0.0600
     24 O24        -1.5405    3.7597   53.2179 O.3     1  ZINC000482962466   -0.3700
     25 C25        -2.6770    3.3410   52.4593 C.3     1  ZINC000482962466    0.0400
     26 O26        -1.7193    4.1834   50.4056 O.3     1  ZINC000482962466   -0.3500
     27 H27         0.6585    3.2202   49.6767 H       1  ZINC000482962466    0.0700
     28 H28         0.0211    1.8714   48.7058 H       1  ZINC000482962466    0.0800
     29 H29        -0.3197    3.5515   48.2270 H       1  ZINC000482962466    0.0700
     30 H30        -2.6932    2.9757   48.1631 H       1  ZINC000482962466    0.0800
     31 H31        -2.5025    1.3317   48.8250 H       1  ZINC000482962466    0.1000
     32 H32        -5.4605    0.2407   52.2479 H       1  ZINC000482962466    0.1400
     33 H33        -7.4750    0.5341   53.5756 H       1  ZINC000482962466    0.1400
     34 H34        -9.6318    1.6780   53.9481 H       1  ZINC000482962466    0.1400
     35 H35       -10.9151    4.6900   51.2265 H       1  ZINC000482962466    0.1400
     36 H36        -8.9048    4.4127   49.8798 H       1  ZINC000482962466    0.1400
     37 H37        -6.7369    3.2784   49.5037 H       1  ZINC000482962466    0.1400
     38 H38        -4.3252    4.6065   49.7105 H       1  ZINC000482962466    0.0900
     39 H39        -4.9626    3.7947   51.1641 H       1  ZINC000482962466    0.1000
     40 H40        -3.0866    6.3887   50.9058 H       1  ZINC000482962466    0.0800
     41 H41        -3.9145    5.7947   52.3672 H       1  ZINC000482962466    0.0800
     42 H42        -0.8957    6.0527   51.9802 H       1  ZINC000482962466    0.0800
     43 H43        -1.9176    7.0873   53.0086 H       1  ZINC000482962466    0.0800
     44 H44        -0.7563    5.3145   54.3297 H       1  ZINC000482962466    0.1000
     45 H45        -2.5267    5.1417   54.3951 H       1  ZINC000482962466    0.0500
     46 H46        -3.5670    3.3772   53.0875 H       1  ZINC000482962466    0.0600
     47 H47        -2.5226    2.3215   52.1058 H       1  ZINC000482962466    0.1000
@<TRIPOS>BOND
     1     1     2    1
     2     1    27    1
     3     1    28    1
     4     1    29    1
     5     2     3    1
     6     2    26    1
     7     2     4    1
     8     4     5    1
     9     4    30    1
    10     4    31    1
    11     5     6   am
    12     5    19    1
    13     6     7    2
    14     6     8    1
    15     8    18   ar
    16     8     9   ar
    17     9    10   ar
    18     9    32    1
    19    10    11   ar
    20    10    33    1
    21    11    17   ar
    22    11    12   ar
    23    12    13   ar
    24    12    34    1
    25    13    14    1
    26    13    15   ar
    27    15    16   ar
    28    15    35    1
    29    16    17   ar
    30    16    36    1
    31    17    18   ar
    32    18    37    1
    33    19    20    1
    34    19    38    1
    35    19    39    1
    36    20    25    1
    37    20    21    1
    38    20    26    1
    39    21    22    1
    40    21    40    1
    41    21    41    1
    42    22    23    1
    43    22    42    1
    44    22    43    1
    45    23    24    1
    46    23    44    1
    47    23    45    1
    48    24    25    1
    49    25    46    1
    50    25    47    1
@<TRIPOS>SUBSTRUCTURE
     1 ZINC000482962466        1 TEMP              0 ****  ****    0 ROOT


##########                                Name:    ZINC000820901229
##########                DOCK_Rotatable_Bonds:                   3
##########                         Heavy_Atoms:                  18
##########                    Molecular_Weight:             331.233
##########                DOCK_Rotatable_Bonds:                   3
##########                       Formal_Charge:           0.0099999
##########                     HBond_Acceptors:                   5
##########                        HBond_Donors:                   1
##########                         Heavy_Atoms:                  18
##########                          Grid_Score:          -25.007166
##########                     Grid_vdw_energy:          -25.535044
##########                      Grid_es_energy:            0.527878
##########           Internal_energy_repulsive:            2.875257

@<TRIPOS>MOLECULE
ZINC000820901229
 33 35 1 0 0
SMALL
USER_CHARGES


@<TRIPOS>ATOM
      1 O1         -9.0951   -0.7997   52.1956 O.2     1  ZINC000820901229   -0.5300
      2 C2         -8.7508   -0.0548   53.0935 C.2     1  ZINC000820901229    0.6000
      3 N3         -7.8866    0.9485   52.8425 N.am    1  ZINC000820901229   -0.7100
      4 C4         -7.3574    1.1384   51.4898 C.3     1  ZINC000820901229    0.1600
      5 H5         -8.0453    0.7123   50.7594 H       1  ZINC000820901229    0.1000
      6 C6         -5.9812    0.4645   51.3673 C.3     1  ZINC000820901229   -0.1300
      7 C7         -5.3670    0.6944   49.9897 C.3     1  ZINC000820901229   -0.1100
      8 C8         -5.2930    2.1925   49.6513 C.3     1  ZINC000820901229   -0.1100
      9 C9         -6.7011    2.7446   49.7355 C.3     1  ZINC000820901229    0.0800
     10 H10        -7.3628    2.1617   49.0947 H       1  ZINC000820901229    0.0700
     11 O11        -6.8822    4.1319   49.4755 O.3     1  ZINC000820901229   -0.3700
     12 C12        -8.1791    4.4587   50.0367 C.3     1  ZINC000820901229    0.0500
     13 C13        -8.4422    3.4561   51.1900 C.3     1  ZINC000820901229   -0.1500
     14 C14        -7.1629    2.6190   51.2140 C.3     1  ZINC000820901229   -0.1400
     15 H15        -6.4296    3.0507   51.8952 H       1  ZINC000820901229    0.0900
     16 C16        -9.2827   -0.2456   54.4532 C.2     1  ZINC000820901229    0.0100
     17 C17        -9.0251    0.6032   55.4732 C.2     1  ZINC000820901229   -0.2200
     18 S18        -9.8189    0.0368   56.8771 S.3     1  ZINC000820901229    0.3100
     19 C19       -10.4494   -1.3006   56.0224 C.2     1  ZINC000820901229   -0.0100
     20 Br20      -11.5580   -2.6347   56.7755 Br      1  ZINC000820901229    0.0700
     21 N21       -10.0698   -1.2707   54.7926 N.2     1  ZINC000820901229   -0.4100
     22 H22        -7.6152    1.5450   53.5577 H       1  ZINC000820901229    0.4100
     23 H23        -5.3153    0.8737   52.1270 H       1  ZINC000820901229    0.0700
     24 H24        -6.0933   -0.6069   51.5331 H       1  ZINC000820901229    0.0700
     25 H25        -4.3610    0.2751   49.9734 H       1  ZINC000820901229    0.0800
     26 H26        -5.9749    0.1890   49.2394 H       1  ZINC000820901229    0.0700
     27 H27        -4.6511    2.7034   50.3691 H       1  ZINC000820901229    0.0700
     28 H28        -4.9023    2.3259   48.6425 H       1  ZINC000820901229    0.0800
     29 H29        -8.1696    5.4771   50.4251 H       1  ZINC000820901229    0.0900
     30 H30        -8.9503    4.3570   49.2732 H       1  ZINC000820901229    0.0600
     31 H31        -8.5730    3.9823   52.1357 H       1  ZINC000820901229    0.0800
     32 H32        -9.3108    2.8353   50.9702 H       1  ZINC000820901229    0.0800
     33 H33        -8.4166    1.4933   55.4114 H       1  ZINC000820901229    0.2000
@<TRIPOS>BOND
     1     1     2    2
     2     2     3   am
     3     2    16    1
     4     3     4    1
     5     3    22    1
     6     4     5    1
     7     4    14    1
     8     4     6    1
     9     6     7    1
    10     6    23    1
    11     6    24    1
    12     7     8    1
    13     7    25    1
    14     7    26    1
    15     8     9    1
    16     8    27    1
    17     8    28    1
    18     9    10    1
    19     9    14    1
    20     9    11    1
    21    11    12    1
    22    12    13    1
    23    12    29    1
    24    12    30    1
    25    13    14    1
    26    13    31    1
    27    13    32    1
    28    14    15    1
    29    16    21    1
    30    16    17    2
    31    17    18    1
    32    17    33    1
    33    18    19    1
    34    19    20    1
    35    19    21    2
@<TRIPOS>SUBSTRUCTURE
     1 ZINC000820901229        1 TEMP              0 ****  ****    0 ROOT


##########                                Name:    ZINC001010141213
##########                DOCK_Rotatable_Bonds:                   4
##########                         Heavy_Atoms:                  24
##########                    Molecular_Weight:             330.346
##########                DOCK_Rotatable_Bonds:                   4
##########                       Formal_Charge:          -0.0100003
##########                     HBond_Acceptors:                   9
##########                        HBond_Donors:                   1
##########                         Heavy_Atoms:                  24
##########                          Grid_Score:          -24.878628
##########                     Grid_vdw_energy:          -24.493189
##########                      Grid_es_energy:           -0.385439
##########           Internal_energy_repulsive:           14.125312

@<TRIPOS>MOLECULE
ZINC001010141213
 42 44 1 0 0
SMALL
USER_CHARGES


@<TRIPOS>ATOM
      1 C1        -11.8803    1.0281   51.8280 C.3     1  ZINC001010141213   -0.0800
      2 C2        -11.2626    1.1465   53.1975 C.2     1  ZINC001010141213   -0.1500
      3 C3         -9.9592    0.8525   53.5583 C.2     1  ZINC001010141213   -0.0400
      4 C4         -8.8892    0.3575   52.6776 C.2     1  ZINC001010141213    0.6000
      5 O5         -8.6948   -0.8382   52.5695 O.2     1  ZINC001010141213   -0.5100
      6 N6         -8.1245    1.2293   51.9907 N.am    1  ZINC001010141213   -0.6100
      7 C7         -8.3440    2.6770   52.1161 C.3     1  ZINC001010141213    0.0900
      8 C8         -7.0250    3.3381   52.5350 C.3     1  ZINC001010141213    0.0700
      9 N9         -5.9565    2.8581   51.6475 N.am    1  ZINC001010141213   -0.6000
     10 C10        -5.1913    3.7298   50.9613 C.2     1  ZINC001010141213    0.5900
     11 O11        -5.3819    4.9251   51.0736 O.2     1  ZINC001010141213   -0.5200
     12 C12        -4.1197    3.2323   50.0719 C.2     1  ZINC001010141213    0.0300
     13 N13        -2.8710    3.2433   50.4811 N.2     1  ZINC001010141213   -0.1800
     14 N14        -1.9054    2.8226   49.7471 N.am    1  ZINC001010141213   -0.4400
     15 C15        -2.1143    2.3420   48.5072 C.2     1  ZINC001010141213    0.4800
     16 O16        -1.1755    1.9493   47.8345 O.2     1  ZINC001010141213   -0.5100
     17 C17        -3.4282    2.2952   47.9902 C.2     1  ZINC001010141213   -0.1800
     18 C18        -4.4430    2.7403   48.7843 C.2     1  ZINC001010141213   -0.0400
     19 C19        -5.7370    1.4103   51.5220 C.3     1  ZINC001010141213    0.1000
     20 C20        -7.0524    0.7494   51.1075 C.3     1  ZINC001010141213    0.1000
     21 N21        -9.8651    1.1139   54.8958 N.pl3   1  ZINC001010141213   -0.2700
     22 C22        -8.6565    0.9444   55.7061 C.3     1  ZINC001010141213    0.0900
     23 N23       -10.9978    1.5316   55.3343 N.2     1  ZINC001010141213   -0.2800
     24 C24       -11.8821    1.5822   54.3710 C.2     1  ZINC001010141213    0.0100
     25 H25       -11.7487    1.9655   51.2877 H       1  ZINC001010141213    0.0700
     26 H26       -11.3949    0.2212   51.2790 H       1  ZINC001010141213    0.0600
     27 H27       -12.9440    0.8118   51.9267 H       1  ZINC001010141213    0.0700
     28 H28        -8.6681    3.0823   51.1576 H       1  ZINC001010141213    0.0800
     29 H29        -9.1050    2.8674   52.8729 H       1  ZINC001010141213    0.1000
     30 H30        -7.1145    4.4209   52.4473 H       1  ZINC001010141213    0.1400
     31 H31        -6.7925    3.0702   53.5656 H       1  ZINC001010141213    0.0800
     32 H32        -1.0005    2.8520   50.0954 H       1  ZINC001010141213    0.4500
     33 H33        -3.6231    1.9144   46.9986 H       1  ZINC001010141213    0.1700
     34 H34        -5.4656    2.7258   48.4371 H       1  ZINC001010141213    0.1700
     35 H35        -4.9759    1.2199   50.7653 H       1  ZINC001010141213    0.1100
     36 H36        -5.4129    1.0050   52.4806 H       1  ZINC001010141213    0.0800
     37 H37        -6.9614   -0.3333   51.1957 H       1  ZINC001010141213    0.1100
     38 H38        -7.2872    1.0166   50.0772 H       1  ZINC001010141213    0.0800
     39 H39        -8.1258    1.8944   55.7706 H       1  ZINC001010141213    0.0900
     40 H40        -8.9337    0.6145   56.7074 H       1  ZINC001010141213    0.1000
     41 H41        -8.0106    0.1981   55.2436 H       1  ZINC001010141213    0.0900
     42 H42       -12.9103    1.8980   54.4678 H       1  ZINC001010141213    0.1900
@<TRIPOS>BOND
     1     1     2    1
     2     1    25    1
     3     1    26    1
     4     1    27    1
     5     2    24    1
     6     2     3    2
     7     3     4    1
     8     3    21    1
     9     4     5    2
    10     4     6   am
    11     6    20    1
    12     6     7    1
    13     7     8    1
    14     7    28    1
    15     7    29    1
    16     8     9    1
    17     8    30    1
    18     8    31    1
    19     9    10   am
    20     9    19    1
    21    10    11    2
    22    10    12    1
    23    12    18    1
    24    12    13    2
    25    13    14    1
    26    14    15   am
    27    14    32    1
    28    15    16    2
    29    15    17    1
    30    17    18    2
    31    17    33    1
    32    18    34    1
    33    19    20    1
    34    19    35    1
    35    19    36    1
    36    20    37    1
    37    20    38    1
    38    21    22    1
    39    21    23    1
    40    22    39    1
    41    22    40    1
    42    22    41    1
    43    23    24    2
    44    24    42    1
@<TRIPOS>SUBSTRUCTURE
     1 ZINC001010141213        1 TEMP              0 ****  ****    0 ROOT


##########                                Name:    ZINC000942661662
##########                DOCK_Rotatable_Bonds:                   6
##########                         Heavy_Atoms:                  25
##########                    Molecular_Weight:             343.426
##########                DOCK_Rotatable_Bonds:                   6
##########                       Formal_Charge:           0.0399997
##########                     HBond_Acceptors:                   6
##########                        HBond_Donors:                   1
##########                         Heavy_Atoms:                  25
##########                          Grid_Score:          -24.811869
##########                     Grid_vdw_energy:          -24.331223
##########                      Grid_es_energy:           -0.480647
##########           Internal_energy_repulsive:          165.395081

@<TRIPOS>MOLECULE
ZINC000942661662
 50 52 1 0 0
SMALL
USER_CHARGES


@<TRIPOS>ATOM
      1 C1          1.6760    1.1024   50.4795 C.3     1  ZINC000942661662   -0.1700
      2 C2          1.8862    1.9355   49.2136 C.3     1  ZINC000942661662    0.1000
      3 N3          1.5715    3.3385   49.4945 N.am    1  ZINC000942661662   -0.6000
      4 C4          2.5618    4.2074   49.7782 C.2     1  ZINC000942661662    0.6000
      5 O5          3.7167    3.8269   49.8012 O.2     1  ZINC000942661662   -0.5200
      6 C6          2.2453    5.6188   50.0607 C.2     1  ZINC000942661662   -0.2400
      7 C7          3.1256    6.6182   50.3560 C.2     1  ZINC000942661662    0.0700
      8 C8          4.6225    6.4741   50.4535 C.3     1  ZINC000942661662   -0.0900
      9 O9          2.4349    7.7468   50.5442 O.3     1  ZINC000942661662   -0.1700
     10 C10         1.1192    7.5355   50.3844 C.2     1  ZINC000942661662   -0.0300
     11 C11         0.9154    6.2453   50.0770 C.2     1  ZINC000942661662   -0.1900
     12 C12         0.1803    3.7968   49.4668 C.3     1  ZINC000942661662    0.1400
     13 H13         0.0922    4.7391   48.9261 H       1  ZINC000942661662    0.1100
     14 C14        -0.3920    3.9242   50.9033 C.3     1  ZINC000942661662   -0.1400
     15 C15        -1.9076    3.7261   50.6904 C.3     1  ZINC000942661662    0.1000
     16 N16        -2.0791    2.9996   49.4238 N.am    1  ZINC000942661662   -0.6200
     17 C17        -3.2582    2.6508   48.8718 C.2     1  ZINC000942661662    0.6100
     18 O18        -3.2805    2.0472   47.8154 O.2     1  ZINC000942661662   -0.5200
     19 C19        -4.5144    2.9985   49.5445 C.2     1  ZINC000942661662   -0.0600
     20 C20        -5.4506    2.1115   50.0317 C.2     1  ZINC000942661662   -0.0700
     21 C21        -5.3750    0.6076   49.9728 C.3     1  ZINC000942661662   -0.0900
     22 C22        -6.4834    2.8703   50.5913 C.2     1  ZINC000942661662   -0.2100
     23 C23        -6.1670    4.1785   50.4394 C.2     1  ZINC000942661662    0.0500
     24 C24        -7.0055    5.3424   50.9015 C.3     1  ZINC000942661662   -0.0900
     25 N25        -4.9703    4.2701   49.8097 N.pl3   1  ZINC000942661662   -0.5400
     26 C26        -0.7477    2.7173   48.8559 C.3     1  ZINC000942661662    0.0900
     27 H27         1.9102    0.0585   50.2706 H       1  ZINC000942661662    0.0700
     28 H28         2.3306    1.4704   51.2696 H       1  ZINC000942661662    0.0600
     29 H29         0.6375    1.1846   50.8004 H       1  ZINC000942661662    0.0600
     30 H30         2.9247    1.8532   48.8928 H       1  ZINC000942661662    0.0900
     31 H31         1.2316    1.5674   48.4235 H       1  ZINC000942661662    0.0800
     32 H32         5.0696    6.6589   49.4766 H       1  ZINC000942661662    0.0900
     33 H33         5.0108    7.1949   51.1730 H       1  ZINC000942661662    0.0900
     34 H34         4.8698    5.4644   50.7811 H       1  ZINC000942661662    0.1000
     35 H35         0.3480    8.2852   50.4824 H       1  ZINC000942661662    0.2100
     36 H36        -0.0327    5.7638   49.8879 H       1  ZINC000942661662    0.1600
     37 H37         0.0118    3.1450   51.5499 H       1  ZINC000942661662    0.1000
     38 H38        -0.1862    4.9126   51.3142 H       1  ZINC000942661662    0.0900
     39 H39        -2.3241    3.1428   51.5116 H       1  ZINC000942661662    0.0700
     40 H40        -2.4036    4.6949   50.6322 H       1  ZINC000942661662    0.0700
     41 H41        -4.8740    0.2337   50.8658 H       1  ZINC000942661662    0.0700
     42 H42        -6.3825    0.1948   49.9218 H       1  ZINC000942661662    0.0600
     43 H43        -4.8136    0.3063   49.0884 H       1  ZINC000942661662    0.0800
     44 H44        -7.3751    2.4821   51.0607 H       1  ZINC000942661662    0.1400
     45 H45        -6.7244    5.6110   51.9198 H       1  ZINC000942661662    0.0800
     46 H46        -6.8395    6.1943   50.2420 H       1  ZINC000942661662    0.0700
     47 H47        -8.0590    5.0637   50.8768 H       1  ZINC000942661662    0.0900
     48 H48        -4.5139    5.0942   49.5791 H       1  ZINC000942661662    0.4100
     49 H49        -0.7719    2.8066   47.7699 H       1  ZINC000942661662    0.0800
     50 H50        -0.4141    1.7217   49.1481 H       1  ZINC000942661662    0.1000
@<TRIPOS>BOND
     1     1     2    1
     2     1    27    1
     3     1    28    1
     4     1    29    1
     5     2     3    1
     6     2    30    1
     7     2    31    1
     8     3     4   am
     9     3    12    1
    10     4     5    2
    11     4     6    1
    12     6    11    1
    13     6     7    2
    14     7     8    1
    15     7     9    1
    16     8    32    1
    17     8    33    1
    18     8    34    1
    19     9    10    1
    20    10    11    2
    21    10    35    1
    22    11    36    1
    23    12    13    1
    24    12    26    1
    25    12    14    1
    26    14    15    1
    27    14    37    1
    28    14    38    1
    29    15    16    1
    30    15    39    1
    31    15    40    1
    32    16    17   am
    33    16    26    1
    34    17    18    2
    35    17    19    1
    36    19    25    1
    37    19    20    2
    38    20    21    1
    39    20    22    1
    40    21    41    1
    41    21    42    1
    42    21    43    1
    43    22    23    2
    44    22    44    1
    45    23    24    1
    46    23    25    1
    47    24    45    1
    48    24    46    1
    49    24    47    1
    50    25    48    1
    51    26    49    1
    52    26    50    1
@<TRIPOS>SUBSTRUCTURE
     1 ZINC000942661662        1 TEMP              0 ****  ****    0 ROOT


##########                                Name:    ZINC000826324849
##########                DOCK_Rotatable_Bonds:                   4
##########                         Heavy_Atoms:                  27
##########                    Molecular_Weight:             395.374
##########                DOCK_Rotatable_Bonds:                   4
##########                       Formal_Charge:           0.0400001
##########                     HBond_Acceptors:                  13
##########                        HBond_Donors:                   1
##########                         Heavy_Atoms:                  27
##########                          Grid_Score:          -24.796440
##########                     Grid_vdw_energy:          -24.690500
##########                      Grid_es_energy:           -0.105941
##########           Internal_energy_repulsive:           84.671257

@<TRIPOS>MOLECULE
ZINC000826324849
 41 44 1 0 0
SMALL
USER_CHARGES


@<TRIPOS>ATOM
      1 C1         -1.2444    3.1807   56.1367 C.3     1  ZINC000826324849   -0.0600
      2 C2         -2.3818    4.0138   55.6041 C.2     1  ZINC000826324849    0.2000
      3 N3         -3.6595    3.8289   55.8336 N.2     1  ZINC000826324849   -0.4600
      4 C4         -4.2934    4.8047   55.1592 C.2     1  ZINC000826324849    0.1600
      5 C5         -5.7827    5.0278   55.1032 C.3     1  ZINC000826324849    0.2200
      6 H6         -6.2708    4.4455   55.8849 H       1  ZINC000826324849    0.1300
      7 C7         -6.0895    6.5166   55.3009 C.3     1  ZINC000826324849    0.0600
      8 O8         -7.4802    6.7464   55.0622 O.3     1  ZINC000826324849   -0.3600
      9 C9         -7.9017    6.4511   53.7285 C.3     1  ZINC000826324849    0.0400
     10 C10        -7.6878    4.9589   53.4504 C.3     1  ZINC000826324849    0.0800
     11 N11        -6.2961    4.6182   53.7865 N.am    1  ZINC000826324849   -1.0100
     12 S12        -5.3360    3.7996   52.7138 S.o2    1  ZINC000826324849    2.7100
     13 O13        -5.3787    4.5322   51.4971 O.2     1  ZINC000826324849   -0.9300
     14 O14        -4.1279    3.5042   53.4012 O.2     1  ZINC000826324849   -0.9300
     15 C15        -6.1157    2.2528   52.3911 C.ar    1  ZINC000826324849   -0.5800
     16 C16        -7.0661    1.7627   53.2636 C.ar    1  ZINC000826324849   -0.0400
     17 C17        -7.6799    0.5484   53.0127 C.ar    1  ZINC000826324849   -0.0800
     18 C18        -7.3456   -0.1820   51.8875 C.ar    1  ZINC000826324849   -0.1100
     19 C19        -6.3947    0.2989   51.0060 C.ar    1  ZINC000826324849    0.1300
     20 F20        -6.0683   -0.4147   49.9063 F       1  ZINC000826324849   -0.1100
     21 C21        -5.7778    1.5257   51.2521 C.ar    1  ZINC000826324849    0.0500
     22 C22        -4.7567    2.0484   50.3101 C.2     1  ZINC000826324849    0.1800
     23 N23        -4.9715    2.5184   49.0974 N.2     1  ZINC000826324849   -0.2600
     24 N24        -3.8346    2.8726   48.6046 N.pl3   1  ZINC000826324849   -0.2200
     25 N25        -2.9066    2.6421   49.4665 N.2     1  ZINC000826324849   -0.0200
     26 N26        -3.4373    2.1398   50.5293 N.2     1  ZINC000826324849   -0.2600
     27 N27        -3.3857    5.5200   54.5650 N.2     1  ZINC000826324849   -0.3800
     28 O28        -2.2804    5.0858   54.8125 O.3     1  ZINC000826324849    0.0900
     29 H29        -0.2984    3.5845   55.7761 H       1  ZINC000826324849    0.1000
     30 H30        -1.2571    3.2027   57.2264 H       1  ZINC000826324849    0.1100
     31 H31        -1.3552    2.1524   55.7926 H       1  ZINC000826324849    0.1100
     32 H32        -5.8425    6.8068   56.3221 H       1  ZINC000826324849    0.1200
     33 H33        -5.4977    7.1064   54.6009 H       1  ZINC000826324849    0.0600
     34 H34        -8.9587    6.6941   53.6185 H       1  ZINC000826324849    0.1200
     35 H35        -7.3165    7.0406   53.0227 H       1  ZINC000826324849    0.0600
     36 H36        -8.3682    4.3696   54.0651 H       1  ZINC000826324849    0.0900
     37 H37        -7.8721    4.7518   52.3962 H       1  ZINC000826324849    0.1100
     38 H38        -7.3311    2.3283   54.1447 H       1  ZINC000826324849    0.1400
     39 H39        -8.4230    0.1694   53.6986 H       1  ZINC000826324849    0.1500
     40 H40        -7.8273   -1.1296   51.6969 H       1  ZINC000826324849    0.1500
     41 H41        -3.6993    3.2529   47.7226 H       1  ZINC000826324849    0.4800
@<TRIPOS>BOND
     1     1     2    1
     2     1    29    1
     3     1    30    1
     4     1    31    1
     5     2    28    1
     6     2     3    2
     7     3     4    1
     8     4     5    1
     9     4    27    2
    10     5     6    1
    11     5    11    1
    12     5     7    1
    13     7     8    1
    14     7    32    1
    15     7    33    1
    16     8     9    1
    17     9    10    1
    18     9    34    1
    19     9    35    1
    20    10    11    1
    21    10    36    1
    22    10    37    1
    23    11    12   am
    24    12    13    2
    25    12    14    2
    26    12    15    1
    27    15    21   ar
    28    15    16   ar
    29    16    17   ar
    30    16    38    1
    31    17    18   ar
    32    17    39    1
    33    18    19   ar
    34    18    40    1
    35    19    20    1
    36    19    21   ar
    37    21    22    1
    38    22    26    1
    39    22    23    2
    40    23    24    1
    41    24    25    1
    42    24    41    1
    43    25    26    2
    44    27    28    1
@<TRIPOS>SUBSTRUCTURE
     1 ZINC000826324849        1 TEMP              0 ****  ****    0 ROOT


##########                                Name:    ZINC000653668607
##########                DOCK_Rotatable_Bonds:                   5
##########                         Heavy_Atoms:                  28
##########                    Molecular_Weight:             379.459
##########                DOCK_Rotatable_Bonds:                   5
##########                       Formal_Charge:          0.00999918
##########                     HBond_Acceptors:                   6
##########                        HBond_Donors:                   2
##########                         Heavy_Atoms:                  28
##########                          Grid_Score:          -24.582966
##########                     Grid_vdw_energy:          -24.424587
##########                      Grid_es_energy:           -0.158378
##########           Internal_energy_repulsive:            7.141554

@<TRIPOS>MOLECULE
ZINC000653668607
 53 56 1 0 0
SMALL
USER_CHARGES


@<TRIPOS>ATOM
      1 C1        -13.0255    0.5803   54.6193 C.3     1  ZINC000653668607    0.0300
      2 O2        -11.6747    0.1595   54.4187 O.3     1  ZINC000653668607   -0.3200
      3 C3        -10.9644   -0.1833   55.5254 C.ar    1  ZINC000653668607    0.1300
      4 C4        -10.9497   -1.4990   55.9646 C.ar    1  ZINC000653668607   -0.2000
      5 C5        -10.2235   -1.8368   57.0869 C.ar    1  ZINC000653668607   -0.0800
      6 C6         -9.5062   -0.8718   57.7824 C.ar    1  ZINC000653668607   -0.1000
      7 C7         -8.7241   -1.3162   58.9910 C.3     1  ZINC000653668607   -0.0800
      8 C8         -8.3630   -0.1188   59.8674 C.3     1  ZINC000653668607   -0.1200
      9 C9         -7.7079    0.9484   58.9825 C.3     1  ZINC000653668607   -0.1100
     10 C10        -8.7772    1.5345   58.0630 C.3     1  ZINC000653668607   -0.0600
     11 H11        -9.4791    2.1207   58.6560 H       1  ZINC000653668607    0.1000
     12 C12        -8.1200    2.4289   57.0436 C.2     1  ZINC000653668607    0.5200
     13 O13        -8.5340    3.5554   56.8685 O.2     1  ZINC000653668607   -0.5100
     14 N14        -7.0723    1.9770   56.3263 N.am    1  ZINC000653668607   -0.6700
     15 C15        -6.4621    2.8073   55.3798 C.ar    1  ZINC000653668607    0.1500
     16 C16        -5.3076    3.5060   55.7092 C.ar    1  ZINC000653668607   -0.1100
     17 C17        -4.7045    4.3263   54.7750 C.ar    1  ZINC000653668607   -0.0900
     18 C18        -5.2471    4.4544   53.5111 C.ar    1  ZINC000653668607   -0.1200
     19 C19        -6.4020    3.7586   53.1756 C.ar    1  ZINC000653668607    0.1700
     20 N20        -6.9514    3.8892   51.8951 N.am    1  ZINC000653668607   -0.5800
     21 C21        -7.6146    5.1401   51.5237 C.3     1  ZINC000653668607    0.1100
     22 C22        -7.4786    5.3518   50.0120 C.3     1  ZINC000653668607   -0.1500
     23 C23        -8.0386    4.1190   49.2945 C.3     1  ZINC000653668607    0.1100
     24 N24        -7.3523    2.9236   49.7869 N.am    1  ZINC000653668607   -0.7400
     25 C25        -6.8546    2.8676   51.0313 C.2     1  ZINC000653668607    0.7100
     26 O26        -6.3027    1.8467   51.3940 O.2     1  ZINC000653668607   -0.5800
     27 C27        -7.0064    2.9294   54.1091 C.ar    1  ZINC000653668607   -0.1300
     28 C28        -9.5239    0.4365   57.3515 C.ar    1  ZINC000653668607   -0.0300
     29 C29       -10.2472    0.7780   56.2173 C.ar    1  ZINC000653668607   -0.1500
     30 H30       -13.5900   -0.2233   55.0923 H       1  ZINC000653668607    0.0600
     31 H31       -13.0402    1.4612   55.2610 H       1  ZINC000653668607    0.0600
     32 H32       -13.4768    0.8239   53.6574 H       1  ZINC000653668607    0.1000
     33 H33       -11.5050   -2.2555   55.4300 H       1  ZINC000653668607    0.1300
     34 H34       -10.2125   -2.8613   57.4286 H       1  ZINC000653668607    0.1300
     35 H35        -9.3252   -2.0172   59.5702 H       1  ZINC000653668607    0.0800
     36 H36        -7.8096   -1.8118   58.6650 H       1  ZINC000653668607    0.0800
     37 H37        -9.2654    0.2870   60.3246 H       1  ZINC000653668607    0.0700
     38 H38        -7.6651   -0.4300   60.6447 H       1  ZINC000653668607    0.0800
     39 H39        -7.2889    1.7369   59.6077 H       1  ZINC000653668607    0.0700
     40 H40        -6.9177    0.4947   58.3842 H       1  ZINC000653668607    0.0800
     41 H41        -6.7411    1.0761   56.4663 H       1  ZINC000653668607    0.4100
     42 H42        -4.8812    3.4082   56.6966 H       1  ZINC000653668607    0.1400
     43 H43        -3.8071    4.8687   55.0336 H       1  ZINC000653668607    0.1300
     44 H44        -4.7734    5.0962   52.7831 H       1  ZINC000653668607    0.1200
     45 H45        -8.6701    5.0859   51.7904 H       1  ZINC000653668607    0.0700
     46 H46        -7.1467    5.9712   52.0514 H       1  ZINC000653668607    0.0900
     47 H47        -8.0417    6.2361   49.7141 H       1  ZINC000653668607    0.1000
     48 H48        -6.4274    5.4797   49.7535 H       1  ZINC000653668607    0.0800
     49 H49        -9.1067    4.0346   49.4952 H       1  ZINC000653668607    0.0700
     50 H50        -7.8753    4.2167   48.2212 H       1  ZINC000653668607    0.0900
     51 H51        -7.2520    2.1576   49.2002 H       1  ZINC000653668607    0.4200
     52 H52        -7.9040    2.3873   53.8505 H       1  ZINC000653668607    0.1300
     53 H53       -10.2546    1.8021   55.8748 H       1  ZINC000653668607    0.1200
@<TRIPOS>BOND
     1     1     2    1
     2     1    30    1
     3     1    31    1
     4     1    32    1
     5     2     3    1
     6     3    29   ar
     7     3     4   ar
     8     4     5   ar
     9     4    33    1
    10     5     6   ar
    11     5    34    1
    12     6    28   ar
    13     6     7    1
    14     7     8    1
    15     7    35    1
    16     7    36    1
    17     8     9    1
    18     8    37    1
    19     8    38    1
    20     9    10    1
    21     9    39    1
    22     9    40    1
    23    10    11    1
    24    10    12    1
    25    10    28    1
    26    12    13    2
    27    12    14   am
    28    14    15    1
    29    14    41    1
    30    15    27   ar
    31    15    16   ar
    32    16    17   ar
    33    16    42    1
    34    17    18   ar
    35    17    43    1
    36    18    19   ar
    37    18    44    1
    38    19    20    1
    39    19    27   ar
    40    20    25   am
    41    20    21    1
    42    21    22    1
    43    21    45    1
    44    21    46    1
    45    22    23    1
    46    22    47    1
    47    22    48    1
    48    23    24    1
    49    23    49    1
    50    23    50    1
    51    24    25   am
    52    24    51    1
    53    25    26    2
    54    27    52    1
    55    28    29   ar
    56    29    53    1
@<TRIPOS>SUBSTRUCTURE
     1 ZINC000653668607        1 TEMP              0 ****  ****    0 ROOT


##########                                Name:      oleObject5.pdb
##########                DOCK_Rotatable_Bonds:                   5
##########                         Heavy_Atoms:                  24
##########                    Molecular_Weight:             323.438
##########                DOCK_Rotatable_Bonds:                   5
##########                       Formal_Charge:         0.000200074
##########                     HBond_Acceptors:                   4
##########                        HBond_Donors:                   2
##########                         Heavy_Atoms:                  24
##########                          Grid_Score:          -24.427681
##########                     Grid_vdw_energy:          -24.063211
##########                      Grid_es_energy:           -0.364470
##########           Internal_energy_repulsive:           13.146163

@<TRIPOS>MOLECULE
oleObject5.pdb
 49 51 1 0 0
SMALL
NO_CHARGES


@<TRIPOS>ATOM
      1 C          -2.8492    4.0122   52.6931 C.3     1  UNL        -0.0394
      2 C          -2.7718    3.5410   51.2441 C.ar    1  UNL        -0.0456
      3 C          -1.4961    3.3003   50.6969 C.ar    1  UNL        -0.0590
      4 C          -1.3502    2.8864   49.3654 C.ar    1  UNL        -0.0620
      5 C          -2.4841    2.7143   48.5624 C.ar    1  UNL        -0.0619
      6 C          -3.7591    2.9532   49.0946 C.ar    1  UNL        -0.0565
      7 C          -3.9245    3.3597   50.4357 C.ar    1  UNL        -0.0188
      8 C          -5.3464    3.6325   50.9448 C.3     1  UNL         0.0906
      9 N          -6.0816    4.4245   49.9429 N.am    1  UNL        -0.3025
     10 C          -7.4420    4.6624   50.0199 C.2     1  UNL         0.2156
     11 O          -8.0946    4.3724   51.0078 O.2     1  UNL        -0.2774
     12 C          -7.9938    5.5152   48.8616 C.3     1  UNL         0.0382
     13 C          -7.9447    7.0301   49.1964 C.3     1  UNL        -0.0292
     14 C          -9.0362    7.4268   50.2142 C.3     1  UNL        -0.0041
     15 N         -10.3718    7.0509   49.7197 N.4     1  UNL        -0.3167
     16 C         -10.5094    5.6097   49.4443 C.3     1  UNL        -0.0041
     17 C          -9.4349    5.1121   48.4448 C.3     1  UNL        -0.0292
     18 C          -6.0744    2.3338   51.3321 C.ar    1  UNL         0.0681
     19 N          -6.1123    1.3571   50.3933 N.ar    1  UNL        -0.2587
     20 C          -6.7268    0.1928   50.6747 C.ar    1  UNL         0.0272
     21 C          -7.3348   -0.0616   51.9127 C.ar    1  UNL        -0.0435
     22 C          -7.2990    0.9373   52.8959 C.ar    1  UNL        -0.0559
     23 C          -6.6596    2.1589   52.6114 C.ar    1  UNL        -0.0272
     24 C          -6.6129    3.2410   53.6828 C.3     1  UNL        -0.0379
     25 H          -1.8721    3.9550   53.1885 H       1  UNL         0.0280
     26 H          -3.5401    3.4018   53.2850 H       1  UNL         0.0280
     27 H          -3.1768    5.0559   52.7511 H       1  UNL         0.0280
     28 H          -0.6073    3.4397   51.3061 H       1  UNL         0.0626
     29 H          -0.3602    2.7059   48.9564 H       1  UNL         0.0623
     30 H          -2.3763    2.4006   47.5280 H       1  UNL         0.0623
     31 H          -4.6255    2.8267   48.4523 H       1  UNL         0.0627
     32 H          -5.2995    4.2418   51.8522 H       1  UNL         0.0624
     33 H          -5.5315    5.1029   49.4323 H       1  UNL         0.1504
     34 H          -7.3333    5.3341   48.0037 H       1  UNL         0.0402
     35 H          -8.0969    7.6053   48.2740 H       1  UNL         0.0288
     36 H          -6.9569    7.3149   49.5798 H       1  UNL         0.0288
     37 H          -8.9966    8.5095   50.3881 H       1  UNL         0.0428
     38 H          -8.8404    6.9268   51.1719 H       1  UNL         0.0428
     39 H         -10.5630    7.5700   48.8635 H       1  UNL         0.1222
     40 H         -11.5071    5.4059   49.0355 H       1  UNL         0.0428
     41 H         -10.4215    5.0516   50.3848 H       1  UNL         0.0428
     42 H          -9.6505    5.5456   47.4597 H       1  UNL         0.0288
     43 H          -9.5062    4.0229   48.3289 H       1  UNL         0.0288
     44 H          -6.7313   -0.5569   49.8846 H       1  UNL         0.0840
     45 H          -7.8213   -1.0131   52.1055 H       1  UNL         0.0639
     46 H          -7.7601    0.7631   53.8640 H       1  UNL         0.0627
     47 H          -7.1174    2.9208   54.6030 H       1  UNL         0.0280
     48 H          -7.1100    4.1573   53.3416 H       1  UNL         0.0280
     49 H          -5.5780    3.4881   53.9490 H       1  UNL         0.0280
@<TRIPOS>BOND
     1     1     2    1
     2     1    25    1
     3     1    26    1
     4     1    27    1
     5     2     3   ar
     6     2     7   ar
     7     3     4   ar
     8     3    28    1
     9     4     5   ar
    10     4    29    1
    11     5     6   ar
    12     5    30    1
    13     6     7   ar
    14     6    31    1
    15     7     8    1
    16     8     9    1
    17     8    18    1
    18     8    32    1
    19     9    10   am
    20     9    33    1
    21    10    11    2
    22    10    12    1
    23    12    13    1
    24    12    17    1
    25    12    34    1
    26    13    14    1
    27    13    35    1
    28    13    36    1
    29    14    15    1
    30    14    37    1
    31    14    38    1
    32    15    16    1
    33    15    39    1
    34    16    17    1
    35    16    40    1
    36    16    41    1
    37    17    42    1
    38    17    43    1
    39    18    19   ar
    40    18    23   ar
    41    19    20   ar
    42    20    21   ar
    43    20    44    1
    44    21    22   ar
    45    21    45    1
    46    22    23   ar
    47    22    46    1
    48    23    24    1
    49    24    47    1
    50    24    48    1
    51    24    49    1
@<TRIPOS>SUBSTRUCTURE
     1 UNL         1 TEMP              0 ****  ****    0 ROOT


##########                                Name:    ZINC000431691749
##########                DOCK_Rotatable_Bonds:                   4
##########                         Heavy_Atoms:                  24
##########                    Molecular_Weight:             328.454
##########                DOCK_Rotatable_Bonds:                   4
##########                       Formal_Charge:         -0.00999957
##########                     HBond_Acceptors:                   4
##########                        HBond_Donors:                   0
##########                         Heavy_Atoms:                  24
##########                          Grid_Score:          -22.875671
##########                     Grid_vdw_energy:          -22.975647
##########                      Grid_es_energy:            0.099975
##########           Internal_energy_repulsive:          116.912804

@<TRIPOS>MOLECULE
ZINC000431691749
 52 54 1 0 0
SMALL
USER_CHARGES


@<TRIPOS>ATOM
      1 C1        -12.2114    4.2592   51.0382 C.3     1  ZINC000431691749   -0.1200
      2 C2        -10.7597    4.1855   50.6406 C.ar    1  ZINC000431691749   -0.0800
      3 C3        -10.2247    5.1412   49.7976 C.ar    1  ZINC000431691749   -0.1200
      4 C4         -8.8929    5.0736   49.4327 C.ar    1  ZINC000431691749   -0.1100
      5 C5         -8.0963    4.0506   49.9114 C.ar    1  ZINC000431691749   -0.1100
      6 C6         -8.6312    3.0950   50.7554 C.ar    1  ZINC000431691749   -0.0800
      7 C7         -7.7627    1.9793   51.2770 C.3     1  ZINC000431691749    0.2000
      8 H8         -8.0365    1.0458   50.7856 H       1  ZINC000431691749    0.1100
      9 N9         -6.3570    2.2838   50.9985 N.am    1  ZINC000431691749   -0.5700
     10 C10        -5.4748    1.3961   50.4986 C.2     1  ZINC000431691749    0.5200
     11 O11        -5.6865    0.2389   50.2056 O.2     1  ZINC000431691749   -0.4400
     12 C12        -4.1628    2.1458   50.3779 C.3     1  ZINC000431691749    0.0900
     13 H13        -3.3984    1.6839   51.0027 H       1  ZINC000431691749    0.1300
     14 C14        -3.7046    2.1973   48.9190 C.3     1  ZINC000431691749   -0.1500
     15 N15        -4.4888    3.4955   50.8700 N.am    1  ZINC000431691749   -0.6000
     16 C16        -3.5738    4.6351   50.9707 C.3     1  ZINC000431691749    0.1500
     17 C17        -3.5139    5.2548   52.3769 C.3     1  ZINC000431691749   -0.1600
     18 C18        -2.3870    4.2545   52.6840 C.3     1  ZINC000431691749   -0.1400
     19 C19        -2.1043    4.2293   51.1727 C.3     1  ZINC000431691749   -0.1500
     20 C20        -5.7919    3.4790   51.2037 C.2     1  ZINC000431691749    0.7000
     21 O21        -6.3876    4.4404   51.6487 O.2     1  ZINC000431691749   -0.5300
     22 C22        -7.9648    1.8391   52.7871 C.3     1  ZINC000431691749   -0.0700
     23 C23        -6.6999    1.2545   53.4188 C.3     1  ZINC000431691749   -0.1400
     24 C24        -8.2487    3.2147   53.3935 C.3     1  ZINC000431691749   -0.1400
     25 C25        -9.1479    0.9078   53.0590 C.3     1  ZINC000431691749   -0.1600
     26 C26        -9.9615    3.1651   51.1235 C.ar    1  ZINC000431691749   -0.1100
     27 H27       -12.3100    4.8570   51.9443 H       1  ZINC000431691749    0.0700
     28 H28       -12.7853    4.7202   50.2344 H       1  ZINC000431691749    0.0700
     29 H29       -12.5888    3.2535   51.2236 H       1  ZINC000431691749    0.0700
     30 H30       -10.8472    5.9406   49.4235 H       1  ZINC000431691749    0.1200
     31 H31        -8.4751    5.8201   48.7734 H       1  ZINC000431691749    0.1200
     32 H32        -7.0561    3.9974   49.6259 H       1  ZINC000431691749    0.1100
     33 H33        -4.4702    2.6836   48.3146 H       1  ZINC000431691749    0.0700
     34 H34        -2.7745    2.7617   48.8501 H       1  ZINC000431691749    0.0800
     35 H35        -3.5423    1.1835   48.5532 H       1  ZINC000431691749    0.0800
     36 H36        -3.7195    5.3665   50.1756 H       1  ZINC000431691749    0.1000
     37 H37        -3.1880    6.2949   52.3822 H       1  ZINC000431691749    0.0900
     38 H38        -4.4165    5.0899   52.9654 H       1  ZINC000431691749    0.0700
     39 H39        -1.5745    4.6796   53.2732 H       1  ZINC000431691749    0.0700
     40 H40        -2.7434    3.3026   53.0776 H       1  ZINC000431691749    0.0800
     41 H41        -1.8688    3.2366   50.7890 H       1  ZINC000431691749    0.1000
     42 H42        -1.3930    4.9891   50.8487 H       1  ZINC000431691749    0.0900
     43 H43        -5.8570    1.9180   53.2251 H       1  ZINC000431691749    0.0600
     44 H44        -6.8438    1.1547   54.4946 H       1  ZINC000431691749    0.0600
     45 H45        -6.4975    0.2744   52.9868 H       1  ZINC000431691749    0.0600
     46 H46        -9.1499    3.6313   52.9434 H       1  ZINC000431691749    0.0500
     47 H47        -8.3927    3.1149   54.4693 H       1  ZINC000431691749    0.0600
     48 H48        -7.4059    3.8782   53.1998 H       1  ZINC000431691749    0.0500
     49 H49        -9.2859    0.2383   52.2100 H       1  ZINC000431691749    0.0700
     50 H50        -8.9497    0.3211   53.9559 H       1  ZINC000431691749    0.0400
     51 H51       -10.0509    1.5007   53.2047 H       1  ZINC000431691749    0.1000
     52 H52       -10.3794    2.4187   51.7829 H       1  ZINC000431691749    0.1300
@<TRIPOS>BOND
     1     1     2    1
     2     1    27    1
     3     1    28    1
     4     1    29    1
     5     2    26   ar
     6     2     3   ar
     7     3     4   ar
     8     3    30    1
     9     4     5   ar
    10     4    31    1
    11     5     6   ar
    12     5    32    1
    13     6     7    1
    14     6    26   ar
    15     7     8    1
    16     7     9    1
    17     7    22    1
    18     9    20   am
    19     9    10   am
    20    10    11    2
    21    10    12    1
    22    12    13    1
    23    12    14    1
    24    12    15    1
    25    14    33    1
    26    14    34    1
    27    14    35    1
    28    15    16    1
    29    15    20   am
    30    16    19    1
    31    16    17    1
    32    16    36    1
    33    17    18    1
    34    17    37    1
    35    17    38    1
    36    18    19    1
    37    18    39    1
    38    18    40    1
    39    19    41    1
    40    19    42    1
    41    20    21    2
    42    22    23    1
    43    22    24    1
    44    22    25    1
    45    23    43    1
    46    23    44    1
    47    23    45    1
    48    24    46    1
    49    24    47    1
    50    24    48    1
    51    25    49    1
    52    25    50    1
    53    25    51    1
    54    26    52    1
@<TRIPOS>SUBSTRUCTURE
     1 ZINC000431691749        1 TEMP              0 ****  ****    0 ROOT


##########                                Name:    ZINC000569288350
##########                DOCK_Rotatable_Bonds:                   3
##########                         Heavy_Atoms:                  19
##########                    Molecular_Weight:             393.559
##########                DOCK_Rotatable_Bonds:                   3
##########                       Formal_Charge:           0.0299999
##########                     HBond_Acceptors:                   5
##########                        HBond_Donors:                   1
##########                         Heavy_Atoms:                  19
##########                          Grid_Score:          -20.268545
##########                     Grid_vdw_energy:          -19.771460
##########                      Grid_es_energy:           -0.497085
##########           Internal_energy_repulsive:            4.131248

@<TRIPOS>MOLECULE
ZINC000569288350
 26 27 1 0 0
SMALL
USER_CHARGES


@<TRIPOS>ATOM
      1 O1         -6.3273    3.7675   51.7373 O.2     1  ZINC000569288350   -0.4800
      2 C2         -5.5589    2.8285   51.6572 C.2     1  ZINC000569288350    0.5700
      3 N3         -5.6926    1.7758   52.4881 N.am    1  ZINC000569288350   -0.6600
      4 C4         -6.7120    1.7659   53.4463 C.ar    1  ZINC000569288350    0.1800
      5 C5         -6.6605    2.6379   54.5256 C.ar    1  ZINC000569288350   -0.1200
      6 C6         -7.6680    2.6268   55.4710 C.ar    1  ZINC000569288350   -0.0600
      7 C7         -8.7277    1.7483   55.3448 C.ar    1  ZINC000569288350   -0.1500
      8 C8         -8.7839    0.8764   54.2700 C.ar    1  ZINC000569288350    0.1300
      9 F9         -9.8212    0.0193   54.1491 F       1  ZINC000569288350   -0.1200
     10 C10        -7.7807    0.8873   53.3166 C.ar    1  ZINC000569288350   -0.1000
     11 Cl11       -7.8501   -0.2046   51.9688 Cl      1  ZINC000569288350   -0.0400
     12 C12        -4.4834    2.8390   50.6462 C.ar    1  ZINC000569288350   -0.1400
     13 C13        -4.7140    2.3173   49.3692 C.ar    1  ZINC000569288350    0.1400
     14 F14        -5.9230    1.8021   49.0558 F       1  ZINC000569288350   -0.1200
     15 C15        -3.7007    2.3311   48.4281 C.ar    1  ZINC000569288350   -0.1300
     16 C16        -2.4635    2.8582   48.7481 C.ar    1  ZINC000569288350   -0.0600
     17 C17        -2.2289    3.3755   50.0104 C.ar    1  ZINC000569288350   -0.0900
     18 C18        -3.2312    3.3753   50.9580 C.ar    1  ZINC000569288350   -0.0500
     19 I19        -2.8713    4.1595   52.8671 I       1  ZINC000569288350    0.0000
     20 H20        -5.0821    1.0249   52.4216 H       1  ZINC000569288350    0.4200
     21 H21        -5.8329    3.3245   54.6263 H       1  ZINC000569288350    0.1600
     22 H22        -7.6272    3.3054   56.3102 H       1  ZINC000569288350    0.1500
     23 H23        -9.5133    1.7416   56.0859 H       1  ZINC000569288350    0.1500
     24 H24        -3.8763    1.9289   47.4413 H       1  ZINC000569288350    0.1500
     25 H25        -1.6757    2.8661   48.0094 H       1  ZINC000569288350    0.1500
     26 H26        -1.2594    3.7853   50.2525 H       1  ZINC000569288350    0.1500
@<TRIPOS>BOND
     1     1     2    2
     2     2     3   am
     3     2    12    1
     4     3     4    1
     5     3    20    1
     6     4    10   ar
     7     4     5   ar
     8     5     6   ar
     9     5    21    1
    10     6     7   ar
    11     6    22    1
    12     7     8   ar
    13     7    23    1
    14     8     9    1
    15     8    10   ar
    16    10    11    1
    17    12    18   ar
    18    12    13   ar
    19    13    14    1
    20    13    15   ar
    21    15    16   ar
    22    15    24    1
    23    16    17   ar
    24    16    25    1
    25    17    18   ar
    26    17    26    1
    27    18    19    1
@<TRIPOS>SUBSTRUCTURE
     1 ZINC000569288350        1 TEMP              0 ****  ****    0 ROOT

